144
  CCTOOLS-0919241032

 20 19  0  0  0  0  0  0  0  0999 V2000
    0.0000    1.4900    0.9020 C   0  0  0  0  0
    0.0000    0.3180    0.0160 N   0  3  0  0  0
    0.0000   -0.9080    0.8260 C   0  0  0  0  0
    0.0000   -2.0480   -0.0360 O   0  0  0  0  0
   -1.1990    0.3450   -0.8310 C   0  0  0  0  0
   -2.3660    0.3190   -0.0070 O   0  0  0  0  0
    1.1990    0.3450   -0.8310 C   0  0  0  0  0
    2.3660    0.3190   -0.0070 O   0  0  0  0  0
    0.8900    1.4700    1.5310 H   0  0  0  0  0
    0.0000    2.4000    0.3020 H   0  0  0  0  0
   -0.8900    1.4700    1.5310 H   0  0  0  0  0
    0.8900   -0.9280    1.4550 H   0  0  0  0  0
   -0.8900   -0.9280    1.4550 H   0  0  0  0  0
    0.0000   -2.8290    0.5340 H   0  0  0  0  0
   -1.1990    1.2550   -1.4320 H   0  0  0  0  0
   -1.1990   -0.5240   -1.4890 H   0  0  0  0  0
   -3.1290    0.3380   -0.6010 H   0  0  0  0  0
    1.1990   -0.5240   -1.4890 H   0  0  0  0  0
    1.1990    1.2550   -1.4320 H   0  0  0  0  0
    3.1290    0.3380   -0.6010 H   0  0  0  0  0
  1  2  1  0  0  0
  1  9  1  0  0  0
  1 10  1  0  0  0
  1 11  1  0  0  0
  2  3  1  0  0  0
  2  5  1  0  0  0
  2  7  1  0  0  0
  3  4  1  0  0  0
  3 12  1  0  0  0
  3 13  1  0  0  0
  4 14  1  0  0  0
  5  6  1  0  0  0
  5 15  1  0  0  0
  5 16  1  0  0  0
  6 17  1  0  0  0
  7  8  1  0  0  0
  7 18  1  0  0  0
  7 19  1  0  0  0
  8 20  1  0  0  0
M  CHG  1   2   1
M  END
$$$$
