1HC
  CCTOOLS-0919241034

 10  9  0  0  0  0  0  0  0  0999 V2000
   -1.9760   -0.0140   -0.0000 C   0  0  0  0  0
   -0.8290   -0.6880   -0.0000 C   0  0  0  0  0
    0.4510    0.0380   -0.0000 C   0  0  0  0  0
    0.4600    1.2540   -0.0000 O   0  0  0  0  0
    1.6120   -0.6450    0.0000 N   0  0  0  0  0
   -2.9150   -0.5470   -0.0000 H   0  0  0  0  0
   -1.9670    1.0660    0.0040 H   0  0  0  0  0
   -0.8370   -1.7680    0.0000 H   0  0  0  0  0
    1.6050   -1.6150    0.0000 H   0  0  0  0  0
    2.4560   -0.1670    0.0000 H   0  0  0  0  0
  1  6  1  0  0  0
  1  7  1  0  0  0
  2  3  1  0  0  0
  2  1  2  0  0  0
  2  8  1  0  0  0
  3  5  1  0  0  0
  4  3  2  0  0  0
  5  9  1  0  0  0
  5 10  1  0  0  0
M  END
$$$$
