1WE
  CCTOOLS-0919241036

 23 23  0  0  1  0  0  0  0  0999 V2000
    1.9480    1.2400   -0.7250 N   0  0  0  0  0
    2.0400   -0.1780   -0.3510 C   0  0  0  0  0
    3.4840   -0.5120    0.0280 C   0  0  0  0  0
    1.1220   -0.4510    0.8420 C   0  0  0  0  0
   -0.3120   -0.2400    0.4310 C   0  0  0  0  0
   -0.8910    1.0090    0.5610 C   0  0  0  0  0
   -1.0470   -1.2930   -0.0800 C   0  0  0  0  0
   -2.2070    1.2030    0.1840 C   0  0  0  0  0
   -2.3630   -1.0980   -0.4570 C   0  0  0  0  0
   -2.9440    0.1490   -0.3220 C   0  0  0  0  0
    2.1650    1.8360    0.0600 H   0  0  0  0  0
    2.5460    1.4460   -1.5110 H   0  0  0  0  0
    1.7340   -0.7960   -1.1950 H   0  0  0  0  0
    4.1380   -0.3170   -0.8220 H   0  0  0  0  0
    3.7900    0.1060    0.8720 H   0  0  0  0  0
    3.5520   -1.5640    0.3050 H   0  0  0  0  0
    1.2570   -1.4810    1.1750 H   0  0  0  0  0
    1.3720    0.2290    1.6560 H   0  0  0  0  0
   -0.3150    1.8320    0.9570 H   0  0  0  0  0
   -0.5940   -2.2670   -0.1860 H   0  0  0  0  0
   -2.6590    2.1780    0.2860 H   0  0  0  0  0
   -2.9370   -1.9210   -0.8570 H   0  0  0  0  0
   -3.9720    0.3010   -0.6160 H   0  0  0  0  0
  1 11  1  0  0  0
  1 12  1  0  0  0
  2  1  1  0  0  0
  2  4  1  0  0  0
  2 13  1  0  0  0
  3  2  1  0  0  0
  3 14  1  0  0  0
  3 15  1  0  0  0
  3 16  1  0  0  0
  4  5  1  0  0  0
  4 17  1  0  0  0
  4 18  1  0  0  0
  5  7  2  0  0  0
  6  8  2  0  0  0
  6  5  1  0  0  0
  6 19  1  0  0  0
  7  9  1  0  0  0
  7 20  1  0  0  0
  8 10  1  0  0  0
  8 21  1  0  0  0
  9 22  1  0  0  0
 10  9  2  0  0  0
 10 23  1  0  0  0
M  END
$$$$
