2Y5
  CCTOOLS-0919241041

149149  0  0  1  0  0  0  0  0999 V2000
   -2.0710    4.6680    0.3310 C   0  0  0  0  0
   -0.9930    3.8310    0.7530 O   0  0  0  0  0
    0.2140    4.3580    1.6800 P   0  0  0  0  0
   -2.1020    4.7270   -1.1980 C   0  0  0  0  0
   -0.8670    5.2620   -1.6790 O   0  0  0  0  0
   -3.2570    5.6220   -1.6510 C   0  0  0  0  0
   -3.2850    5.6780   -3.0790 O   0  0  0  0  0
   -4.5790    5.0490   -1.1370 C   0  0  0  0  0
   -5.6570    5.8860   -1.5590 O   0  0  0  0  0
   -6.8640    5.3590   -2.4860 P   0  0  0  0  0
   -4.5480    4.9900    0.3920 C   0  0  0  0  0
   -5.7830    4.4550    0.8730 O   0  0  0  0  0
   -3.3930    4.0940    0.8450 C   0  0  0  0  0
   -3.5780    2.7780    0.3210 O   0  0  0  0  0
    2.2770    3.2460    2.9640 C   0  0  0  0  0
    2.9710    1.8900    3.1080 C   0  0  0  0  0
    1.9490    0.8370    3.5380 C   0  0  0  0  0
    4.8160    1.9000    1.5990 C   0  0  0  0  0
   -0.1480   -0.0520    2.8340 C   0  0  0  0  0
   -0.3370    4.9580    2.9140 O   0  0  0  0  0
    5.4870    1.5400    0.2990 C   0  0  0  0  0
    1.0630    5.4650    0.8770 O   0  0  0  0  0
    6.9090    2.1040    0.2850 C   0  0  0  0  0
    1.1730    3.1230    2.0650 O   0  0  0  0  0
    7.5900    1.7380   -1.0350 C   0  0  0  0  0
    8.9910    2.2940   -1.0480 C   0  0  0  0  0
   10.0050    1.5080   -1.3170 C   0  0  0  0  0
    3.5540    1.5080    1.8340 O   0  0  0  0  0
    9.7610    0.0930   -1.7740 C   0  0  0  0  0
    5.4140    2.5420    2.4300 O   0  0  0  0  0
   10.4960   -0.1510   -3.0670 C   0  0  0  0  0
    0.8420    0.8240    2.5980 O   0  0  0  0  0
   11.2980   -1.1810   -3.1800 C   0  0  0  0  0
   -0.0910   -0.7830    3.7940 O   0  0  0  0  0
   11.3610   -2.2110   -2.0810 C   0  0  0  0  0
   11.1230   -3.5800   -2.6620 C   0  0  0  0  0
   11.9810   -4.5450   -2.4380 C   0  0  0  0  0
   13.1080   -4.3390   -1.4590 C   0  0  0  0  0
   13.1000   -5.4510   -0.4420 C   0  0  0  0  0
   14.1850   -6.1530   -0.2310 C   0  0  0  0  0
   15.4830   -5.7480   -0.8810 C   0  0  0  0  0
   16.5750   -5.6390    0.1860 C   0  0  0  0  0
   17.8930   -5.2270   -0.4740 C   0  0  0  0  0
   18.9850   -5.1180    0.5930 C   0  0  0  0  0
   20.3020   -4.7060   -0.0670 C   0  0  0  0  0
   -1.3290   -0.1220    1.9010 C   0  0  0  0  0
   -2.3040   -1.1930    2.3930 C   0  0  0  0  0
   -3.5040   -1.2650    1.4460 C   0  0  0  0  0
   -4.4790   -2.3360    1.9380 C   0  0  0  0  0
   -5.6790   -2.4080    0.9910 C   0  0  0  0  0
   -6.6540   -3.4790    1.4840 C   0  0  0  0  0
   -7.8530   -3.5510    0.5370 C   0  0  0  0  0
   -8.8290   -4.6220    1.0290 C   0  0  0  0  0
  -10.0280   -4.6940    0.0820 C   0  0  0  0  0
  -11.0030   -5.7650    0.5740 C   0  0  0  0  0
  -12.2030   -5.8370   -0.3730 C   0  0  0  0  0
   -7.9600    6.5270   -2.6550 O   0  0  0  0  0
  -13.1780   -6.9080    0.1200 C   0  0  0  0  0
   -6.2900    4.9480   -3.9320 O   0  0  0  0  0
  -14.3780   -6.9790   -0.8270 C   0  0  0  0  0
   -7.4940    4.1800   -1.8510 O   0  0  0  0  0
  -15.3530   -8.0500   -0.3350 C   0  0  0  0  0
  -16.5520   -8.1220   -1.2820 C   0  0  0  0  0
  -17.5280   -9.1930   -0.7900 C   0  0  0  0  0
  -18.7270   -9.2650   -1.7370 C   0  0  0  0  0
   -1.9310    5.6720    0.7300 H   0  0  0  0  0
   -2.2430    3.7230   -1.5980 H   0  0  0  0  0
   -0.8160    5.3290   -2.6420 H   0  0  0  0  0
   -3.1160    6.6270   -1.2510 H   0  0  0  0  0
   -2.4770    6.0320   -3.4750 H   0  0  0  0  0
   -4.7190    4.0450   -1.5360 H   0  0  0  0  0
   -4.4070    5.9940    0.7920 H   0  0  0  0  0
   -5.8340    4.3880    1.8360 H   0  0  0  0  0
   -3.3720    4.0520    1.9340 H   0  0  0  0  0
   -4.3980    2.3520    0.6060 H   0  0  0  0  0
    1.9160    3.5750    3.9390 H   0  0  0  0  0
    2.9840    3.9770    2.5730 H   0  0  0  0  0
    3.7570    1.9620    3.8600 H   0  0  0  0  0
    2.4230   -0.1450    3.5540 H   0  0  0  0  0
    1.5760    1.0770    4.5340 H   0  0  0  0  0
    5.5250    0.4550    0.1980 H   0  0  0  0  0
    4.9210    1.9620   -0.5320 H   0  0  0  0  0
    1.4550    5.1410    0.0540 H   0  0  0  0  0
    6.8710    3.1880    0.3860 H   0  0  0  0  0
    7.4750    1.6810    1.1150 H   0  0  0  0  0
    7.6290    0.6540   -1.1360 H   0  0  0  0  0
    7.0240    2.1610   -1.8650 H   0  0  0  0  0
    9.1600    3.3390   -0.8350 H   0  0  0  0  0
   11.0150    1.8750   -1.2120 H   0  0  0  0  0
   10.1210   -0.6010   -1.0150 H   0  0  0  0  0
    8.6930   -0.0600   -1.9290 H   0  0  0  0  0
   10.3620    0.5230   -3.9000 H   0  0  0  0  0
   11.9140   -1.2920   -4.0600 H   0  0  0  0  0
   12.3450   -2.1810   -1.6110 H   0  0  0  0  0
   10.5960   -1.9940   -1.3360 H   0  0  0  0  0
   10.2460   -3.7670   -3.2640 H   0  0  0  0  0
   11.8800   -5.4880   -2.9540 H   0  0  0  0  0
   14.0580   -4.3420   -1.9930 H   0  0  0  0  0
   12.9790   -3.3820   -0.9530 H   0  0  0  0  0
   12.2000   -5.6690    0.1130 H   0  0  0  0  0
   14.1500   -7.0230    0.4090 H   0  0  0  0  0
   15.7700   -6.4970   -1.6180 H   0  0  0  0  0
   15.3580   -4.7830   -1.3720 H   0  0  0  0  0
   16.2880   -4.8890    0.9240 H   0  0  0  0  0
   16.7010   -6.6030    0.6780 H   0  0  0  0  0
   18.1800   -5.9770   -1.2120 H   0  0  0  0  0
   17.7670   -4.2620   -0.9650 H   0  0  0  0  0
   18.6980   -4.3680    1.3310 H   0  0  0  0  0
   19.1100   -6.0820    1.0840 H   0  0  0  0  0
   21.0800   -4.6280    0.6930 H   0  0  0  0  0
   20.5890   -5.4560   -0.8050 H   0  0  0  0  0
   20.1770   -3.7420   -0.5590 H   0  0  0  0  0
   -1.8320    0.8440    1.8780 H   0  0  0  0  0
   -0.9860   -0.3770    0.8980 H   0  0  0  0  0
   -1.8010   -2.1600    2.4160 H   0  0  0  0  0
   -2.6480   -0.9390    3.3960 H   0  0  0  0  0
   -4.0070   -0.2990    1.4230 H   0  0  0  0  0
   -3.1600   -1.5200    0.4430 H   0  0  0  0  0
   -3.9760   -3.3030    1.9620 H   0  0  0  0  0
   -4.8230   -2.0820    2.9410 H   0  0  0  0  0
   -6.1820   -1.4410    0.9680 H   0  0  0  0  0
   -5.3350   -2.6630   -0.0110 H   0  0  0  0  0
   -6.1510   -4.4460    1.5070 H   0  0  0  0  0
   -6.9970   -3.2240    2.4860 H   0  0  0  0  0
   -8.3560   -2.5840    0.5140 H   0  0  0  0  0
   -7.5100   -3.8060   -0.4660 H   0  0  0  0  0
   -8.3250   -5.5890    1.0520 H   0  0  0  0  0
   -9.1720   -4.3670    2.0320 H   0  0  0  0  0
  -10.5310   -3.7270    0.0590 H   0  0  0  0  0
   -9.6850   -4.9490   -0.9210 H   0  0  0  0  0
  -10.5000   -6.7310    0.5970 H   0  0  0  0  0
  -11.3470   -5.5100    1.5770 H   0  0  0  0  0
  -12.7060   -4.8700   -0.3960 H   0  0  0  0  0
  -11.8590   -6.0910   -1.3750 H   0  0  0  0  0
   -8.7170    6.2790   -3.2020 H   0  0  0  0  0
  -12.6750   -7.8740    0.1430 H   0  0  0  0  0
  -13.5220   -6.6530    1.1220 H   0  0  0  0  0
   -5.8630    5.6740   -4.4070 H   0  0  0  0  0
  -14.8810   -6.0130   -0.8500 H   0  0  0  0  0
  -14.0340   -7.2340   -1.8300 H   0  0  0  0  0
  -14.8500   -9.0170   -0.3120 H   0  0  0  0  0
  -15.6960   -7.7960    0.6680 H   0  0  0  0  0
  -17.0560   -7.1560   -1.3050 H   0  0  0  0  0
  -16.2090   -8.3770   -2.2850 H   0  0  0  0  0
  -17.0240  -10.1600   -0.7670 H   0  0  0  0  0
  -17.8710   -8.9390    0.2130 H   0  0  0  0  0
  -19.4220  -10.0280   -1.3860 H   0  0  0  0  0
  -19.2300   -8.2990   -1.7600 H   0  0  0  0  0
  -18.3840   -9.5200   -2.7390 H   0  0  0  0  0
  1  4  1  0  0  0
  1 66  1  0  0  0
  2  1  1  0  0  0
  3  2  1  0  0  0
  3 20  2  0  0  0
  3 22  1  0  0  0
  4  6  1  0  0  0
  4  5  1  0  0  0
  4 67  1  0  0  0
  5 68  1  0  0  0
  6  7  1  0  0  0
  6 69  1  0  0  0
  7 70  1  0  0  0
  8  9  1  0  0  0
  8  6  1  0  0  0
  8 71  1  0  0  0
 10 59  1  0  0  0
 10  9  1  0  0  0
 10 57  1  0  0  0
 11  8  1  0  0  0
 11 72  1  0  0  0
 12 11  1  0  0  0
 12 73  1  0  0  0
 13 11  1  0  0  0
 13  1  1  0  0  0
 13 74  1  0  0  0
 14 13  1  0  0  0
 14 75  1  0  0  0
 15 24  1  0  0  0
 15 76  1  0  0  0
 15 77  1  0  0  0
 16 17  1  0  0  0
 16 15  1  0  0  0
 16 78  1  0  0  0
 17 79  1  0  0  0
 17 80  1  0  0  0
 18 28  1  0  0  0
 19 34  2  0  0  0
 21 18  1  0  0  0
 21 81  1  0  0  0
 21 82  1  0  0  0
 22 83  1  0  0  0
 23 21  1  0  0  0
 23 84  1  0  0  0
 23 85  1  0  0  0
 24  3  1  0  0  0
 25 23  1  0  0  0
 25 86  1  0  0  0
 25 87  1  0  0  0
 26 25  1  0  0  0
 26 88  1  0  0  0
 27 26  2  0  0  0
 27 29  1  0  0  0
 27 89  1  0  0  0
 28 16  1  0  0  0
 29 90  1  0  0  0
 29 91  1  0  0  0
 30 18  2  0  0  0
 31 29  1  0  0  0
 31 33  2  0  0  0
 31 92  1  0  0  0
 32 19  1  0  0  0
 32 17  1  0  0  0
 33 35  1  0  0  0
 33 93  1  0  0  0
 35 36  1  0  0  0
 35 94  1  0  0  0
 35 95  1  0  0  0
 36 37  2  0  0  0
 36 96  1  0  0  0
 37 97  1  0  0  0
 38 37  1  0  0  0
 38 39  1  0  0  0
 38 98  1  0  0  0
 38 99  1  0  0  0
 39100  1  0  0  0
 40 39  2  0  0  0
 40101  1  0  0  0
 41 40  1  0  0  0
 41102  1  0  0  0
 41103  1  0  0  0
 42 41  1  0  0  0
 42104  1  0  0  0
 42105  1  0  0  0
 43 44  1  0  0  0
 43 42  1  0  0  0
 43106  1  0  0  0
 43107  1  0  0  0
 44108  1  0  0  0
 44109  1  0  0  0
 45 44  1  0  0  0
 45110  1  0  0  0
 45111  1  0  0  0
 45112  1  0  0  0
 46 47  1  0  0  0
 46 19  1  0  0  0
 46113  1  0  0  0
 46114  1  0  0  0
 47115  1  0  0  0
 47116  1  0  0  0
 48 49  1  0  0  0
 48 47  1  0  0  0
 48117  1  0  0  0
 48118  1  0  0  0
 49119  1  0  0  0
 49120  1  0  0  0
 50 51  1  0  0  0
 50 49  1  0  0  0
 50121  1  0  0  0
 50122  1  0  0  0
 51 52  1  0  0  0
 51123  1  0  0  0
 51124  1  0  0  0
 52125  1  0  0  0
 52126  1  0  0  0
 53 52  1  0  0  0
 53 54  1  0  0  0
 53127  1  0  0  0
 53128  1  0  0  0
 54129  1  0  0  0
 54130  1  0  0  0
 55 54  1  0  0  0
 55 56  1  0  0  0
 55131  1  0  0  0
 55132  1  0  0  0
 56133  1  0  0  0
 56134  1  0  0  0
 57135  1  0  0  0
 58 60  1  0  0  0
 58 56  1  0  0  0
 58136  1  0  0  0
 58137  1  0  0  0
 59138  1  0  0  0
 60139  1  0  0  0
 60140  1  0  0  0
 61 10  2  0  0  0
 62 63  1  0  0  0
 62 60  1  0  0  0
 62141  1  0  0  0
 62142  1  0  0  0
 63 64  1  0  0  0
 63143  1  0  0  0
 63144  1  0  0  0
 64145  1  0  0  0
 64146  1  0  0  0
 65 64  1  0  0  0
 65147  1  0  0  0
 65148  1  0  0  0
 65149  1  0  0  0
M  END
$$$$
