336
  CCTOOLS-0919241041

 67 71  0  0  1  0  0  0  0  0999 V2000
   -1.1270   -1.5530    0.4960 C   0  0  0  0  0
   -0.8610    0.1750   -1.2860 C   0  0  0  0  0
   -0.8250    1.2830   -0.2300 C   0  0  0  0  0
   -1.6880    0.8650    0.9700 C   0  0  0  0  0
   -1.2180   -0.4400    1.4500 N   0  0  0  0  0
   -0.2760   -1.1100   -0.6980 C   0  0  0  0  0
   -2.9660   -1.3470   -7.3290 CL  0  0  0  0  0
    3.6170   -0.2860   -2.1400 C   0  0  0  0  0
   -2.1090   -0.8510   -5.9030 C   0  0  0  0  0
   -0.8370   -1.3020   -5.6640 C   0  0  0  0  0
    1.2170   -1.6520   -4.4890 C   0  0  0  0  0
    2.4000   -0.8060   -4.1370 C   0  0  0  0  0
   -1.9730    0.4070   -3.8980 C   0  0  0  0  0
    3.8510    0.3270   -0.9320 C   0  0  0  0  0
    2.8160    1.0370   -0.3470 C   0  0  0  0  0
    1.6500    1.0740   -0.9360 N   0  0  0  0  0
   -0.0340    0.6020   -2.5000 C   0  0  0  0  0
   -2.7000    0.0060   -4.9910 C   0  0  0  0  0
    5.5410    0.2060   -0.0920 BR  0  0  0  0  0
   -2.7590    1.5990   -2.6580 BR  0  0  0  0  0
    1.3840    0.4580   -2.1080 C   0  0  0  0  0
   -0.6550   -0.0460   -3.6740 C   0  0  0  0  0
    2.3450   -0.1840   -2.7590 C   0  0  0  0  0
   -0.1050   -0.9160   -4.5160 C   0  0  0  0  0
   -0.6450    1.2410    6.0840 C   0  0  0  0  0
   -0.1750    0.7820    7.4680 C   0  0  0  0  0
   -0.5450    0.0710    5.1020 C   0  0  0  0  0
   -1.4550   -1.0670    5.5680 C   0  0  0  0  0
   -0.9490   -0.4030    7.8610 N   0  0  0  0  0
   -1.6040   -0.4360    9.0390 C   0  0  0  0  0
   -1.6450    0.6620    9.8180 N   0  0  0  0  0
   -2.1570   -1.4580    9.3980 O   0  0  0  0  0
   -0.9890   -1.5540    6.9490 C   0  0  0  0  0
   -0.9810    0.5350    3.7110 C   0  0  0  0  0
   -0.5010   -1.7000    3.1290 O   0  0  0  0  0
   -0.8820   -0.6160    2.7440 C   0  0  0  0  0
   -2.1260   -1.8230    0.1530 H   0  0  0  0  0
   -0.6600   -2.4120    0.9790 H   0  0  0  0  0
   -1.8910   -0.0000   -1.5930 H   0  0  0  0  0
   -1.2200    2.2050   -0.6570 H   0  0  0  0  0
    0.2020    1.4430    0.0940 H   0  0  0  0  0
   -2.7310    0.7940    0.6630 H   0  0  0  0  0
   -1.5880    1.6040    1.7650 H   0  0  0  0  0
    0.7460   -0.9270   -0.3680 H   0  0  0  0  0
   -0.2800   -1.8920   -1.4570 H   0  0  0  0  0
    4.4040   -0.8490   -2.6200 H   0  0  0  0  0
   -0.3780   -1.9750   -6.3740 H   0  0  0  0  0
    1.1450   -2.4630   -3.7640 H   0  0  0  0  0
    1.3880   -2.0900   -5.4730 H   0  0  0  0  0
    2.4840   -0.0060   -4.8730 H   0  0  0  0  0
    3.2970   -1.4230   -4.2010 H   0  0  0  0  0
    2.9710    1.5550    0.5860 H   0  0  0  0  0
   -0.2130    1.6720   -2.6130 H   0  0  0  0  0
   -3.7130    0.3520   -5.1360 H   0  0  0  0  0
   -1.6800    1.5770    6.1440 H   0  0  0  0  0
   -0.0150    2.0610    5.7390 H   0  0  0  0  0
   -0.3380    1.5810    8.1920 H   0  0  0  0  0
    0.8840    0.5310    7.4290 H   0  0  0  0  0
    0.4850   -0.2800    5.0610 H   0  0  0  0  0
   -2.4820   -0.7090    5.6340 H   0  0  0  0  0
   -1.4000   -1.8900    4.8560 H   0  0  0  0  0
   -2.1890    0.6660   10.6210 H   0  0  0  0  0
   -1.1290    1.4470    9.5780 H   0  0  0  0  0
    0.0030   -1.9950    6.8650 H   0  0  0  0  0
   -1.6900   -2.2960    7.3300 H   0  0  0  0  0
   -0.3330    1.3450    3.3780 H   0  0  0  0  0
   -2.0120    0.8880    3.7520 H   0  0  0  0  0
  1  5  1  0  0  0
  1  6  1  0  0  0
  1 37  1  0  0  0
  1 38  1  0  0  0
  2  3  1  0  0  0
  2  6  1  0  0  0
  2 17  1  0  0  0
  2 39  1  0  0  0
  3  4  1  0  0  0
  3 40  1  0  0  0
  3 41  1  0  0  0
  4  5  1  0  0  0
  4 42  1  0  0  0
  4 43  1  0  0  0
  5 36  1  0  0  0
  6 44  1  0  0  0
  6 45  1  0  0  0
  7  9  1  0  0  0
  8 14  2  0  0  0
  8 23  1  0  0  0
  8 46  1  0  0  0
  9 10  2  0  0  0
  9 18  1  0  0  0
 10 24  1  0  0  0
 10 47  1  0  0  0
 11 12  1  0  0  0
 11 24  1  0  0  0
 11 48  1  0  0  0
 11 49  1  0  0  0
 12 23  1  0  0  0
 12 50  1  0  0  0
 12 51  1  0  0  0
 13 18  2  0  0  0
 13 20  1  0  0  0
 13 22  1  0  0  0
 14 15  1  0  0  0
 14 19  1  0  0  0
 15 16  2  0  0  0
 15 52  1  0  0  0
 16 21  1  0  0  0
 17 21  1  0  0  0
 17 22  1  0  0  0
 17 53  1  0  0  0
 18 54  1  0  0  0
 21 23  2  0  0  0
 22 24  2  0  0  0
 25 26  1  0  0  0
 25 27  1  0  0  0
 25 55  1  0  0  0
 25 56  1  0  0  0
 26 29  1  0  0  0
 26 57  1  0  0  0
 26 58  1  0  0  0
 27 28  1  0  0  0
 27 34  1  0  0  0
 27 59  1  0  0  0
 28 33  1  0  0  0
 28 60  1  0  0  0
 28 61  1  0  0  0
 29 30  1  0  0  0
 29 33  1  0  0  0
 30 31  1  0  0  0
 30 32  2  0  0  0
 31 62  1  0  0  0
 31 63  1  0  0  0
 33 64  1  0  0  0
 33 65  1  0  0  0
 34 36  1  0  0  0
 34 66  1  0  0  0
 34 67  1  0  0  0
 35 36  2  0  0  0
M  END
$$$$
