3HR
  CCTOOLS-0919241044

 15 14  0  0  1  0  0  0  0  0999 V2000
   -1.2580    0.0750   -0.0560 C   0  0  0  0  0
   -1.2270   -1.0390   -0.5230 O   0  0  0  0  0
    0.0240    0.8400    0.1540 C   0  0  0  0  0
    1.3150   -1.1680    0.5330 O   0  0  0  0  0
    1.2080   -0.0150   -0.3040 C   0  0  0  0  0
   -2.4340    0.6330    0.2720 O   0  0  0  0  0
    2.4960    0.8060   -0.2080 C   0  0  0  0  0
   -0.0040    1.7620   -0.4260 H   0  0  0  0  0
    0.1360    1.0790    1.2110 H   0  0  0  0  0
    1.4540   -0.9640    1.4680 H   0  0  0  0  0
    1.0520   -0.3280   -1.3360 H   0  0  0  0  0
   -3.2290    0.1060    0.1150 H   0  0  0  0  0
    2.6510    1.1190    0.8240 H   0  0  0  0  0
    3.3390    0.1970   -0.5340 H   0  0  0  0  0
    2.4140    1.6860   -0.8470 H   0  0  0  0  0
  1  2  2  0  0  0
  1  3  1  0  0  0
  1  6  1  0  0  0
  3  5  1  0  0  0
  3  8  1  0  0  0
  3  9  1  0  0  0
  4  5  1  0  0  0
  4 10  1  0  0  0
  5  7  1  0  0  0
  5 11  1  0  0  0
  6 12  1  0  0  0
  7 13  1  0  0  0
  7 14  1  0  0  0
  7 15  1  0  0  0
M  END
$$$$
