3PE
  CCTOOLS-0919241027

133132  0  0  1  0  0  0  0  0999 V2000
    0.6220    4.5880    1.7740 P   0  0  0  0  0
    4.0000    2.3120    3.4390 N   0  0  0  0  0
    0.1470    4.0120    0.3480 O   0  0  0  0  0
    1.5000    5.9190    1.5500 O   0  0  0  0  0
    1.5100    3.4800    2.5320 O   0  0  0  0  0
   -0.5660    4.9130    2.5950 O   0  0  0  0  0
    1.9940    3.6490    3.8660 C   0  0  0  0  0
    2.7990    2.4150    4.2770 C   0  0  0  0  0
   -0.7430    4.7170   -0.5200 C   0  0  0  0  0
   -0.9840    3.8910   -1.7850 C   0  0  0  0  0
    0.3590    3.5500   -2.4340 C   0  0  0  0  0
    1.2120    2.8870   -1.4640 O   0  0  0  0  0
    2.7800    2.7430   -3.0140 O   0  0  0  0  0
    2.4340    2.5200   -1.8780 C   0  0  0  0  0
    3.3760    1.8270   -0.9270 C   0  0  0  0  0
    4.6910    1.5190   -1.6440 C   0  0  0  0  0
    5.6470    0.8160   -0.6780 C   0  0  0  0  0
    6.9620    0.5080   -1.3960 C   0  0  0  0  0
    7.9180   -0.1950   -0.4300 C   0  0  0  0  0
    9.2340   -0.5030   -1.1480 C   0  0  0  0  0
   10.1890   -1.2060   -0.1810 C   0  0  0  0  0
   11.5050   -1.5150   -0.8990 C   0  0  0  0  0
   12.4600   -2.2170    0.0670 C   0  0  0  0  0
   13.7760   -2.5260   -0.6510 C   0  0  0  0  0
   14.7320   -3.2290    0.3150 C   0  0  0  0  0
   16.0470   -3.5370   -0.4030 C   0  0  0  0  0
   17.0030   -4.2400    0.5640 C   0  0  0  0  0
   18.3180   -4.5480   -0.1540 C   0  0  0  0  0
   19.2740   -5.2510    0.8120 C   0  0  0  0  0
   20.5900   -5.5590    0.0940 C   0  0  0  0  0
   21.5450   -6.2620    1.0600 C   0  0  0  0  0
   -1.6790    2.6640   -1.4360 O   0  0  0  0  0
   -3.5950    3.7210   -1.7420 O   0  0  0  0  0
   -3.0200    2.6990   -1.4490 C   0  0  0  0  0
   -3.8090    1.4640   -1.0990 C   0  0  0  0  0
   -5.3060    1.7720   -1.1890 C   0  0  0  0  0
   -6.1070    0.5180   -0.8340 C   0  0  0  0  0
   -7.6030    0.8260   -0.9250 C   0  0  0  0  0
   -8.4040   -0.4280   -0.5690 C   0  0  0  0  0
   -9.9000   -0.1200   -0.6600 C   0  0  0  0  0
  -10.7010   -1.3740   -0.3040 C   0  0  0  0  0
  -12.1970   -1.0660   -0.3950 C   0  0  0  0  0
  -12.9980   -2.3200   -0.0390 C   0  0  0  0  0
  -14.4940   -2.0120   -0.1300 C   0  0  0  0  0
  -15.2960   -3.2660    0.2260 C   0  0  0  0  0
  -16.7920   -2.9580    0.1350 C   0  0  0  0  0
  -17.5930   -4.2120    0.4910 C   0  0  0  0  0
  -19.0890   -3.9050    0.4000 C   0  0  0  0  0
  -19.8900   -5.1580    0.7560 C   0  0  0  0  0
  -21.3860   -4.8510    0.6650 C   0  0  0  0  0
  -22.1870   -6.1040    1.0210 C   0  0  0  0  0
    4.5490    1.5040    3.6910 H   0  0  0  0  0
    3.7570    2.2930    2.4600 H   0  0  0  0  0
    2.6330    4.5310    3.9120 H   0  0  0  0  0
    1.1510    3.7760    4.5450 H   0  0  0  0  0
    2.1870    1.5220    4.1470 H   0  0  0  0  0
    3.0920    2.5040    5.3230 H   0  0  0  0  0
   -1.6910    4.8850   -0.0090 H   0  0  0  0  0
   -0.3020    5.6760   -0.7910 H   0  0  0  0  0
   -1.5900    4.4660   -2.4840 H   0  0  0  0  0
    0.1930    2.8880   -3.2840 H   0  0  0  0  0
    0.8400    4.4660   -2.7760 H   0  0  0  0  0
    3.5710    2.4760   -0.0720 H   0  0  0  0  0
    2.9240    0.8970   -0.5810 H   0  0  0  0  0
    4.4960    0.8700   -2.4980 H   0  0  0  0  0
    5.1430    2.4490   -1.9900 H   0  0  0  0  0
    5.8420    1.4640    0.1760 H   0  0  0  0  0
    5.1950   -0.1140   -0.3330 H   0  0  0  0  0
    6.7670   -0.1410   -2.2500 H   0  0  0  0  0
    7.4140    1.4380   -1.7420 H   0  0  0  0  0
    8.1130    0.4530    0.4240 H   0  0  0  0  0
    7.4660   -1.1250   -0.0840 H   0  0  0  0  0
    9.0380   -1.1520   -2.0020 H   0  0  0  0  0
    9.6850    0.4260   -1.4930 H   0  0  0  0  0
   10.3840   -0.5580    0.6730 H   0  0  0  0  0
    9.7380   -2.1360    0.1640 H   0  0  0  0  0
   11.3090   -2.1630   -1.7530 H   0  0  0  0  0
   11.9570   -0.5850   -1.2450 H   0  0  0  0  0
   12.6560   -1.5690    0.9210 H   0  0  0  0  0
   12.0090   -3.1470    0.4130 H   0  0  0  0  0
   13.5810   -3.1740   -1.5050 H   0  0  0  0  0
   14.2280   -1.5960   -0.9970 H   0  0  0  0  0
   14.9270   -2.5800    1.1690 H   0  0  0  0  0
   14.2800   -4.1590    0.6610 H   0  0  0  0  0
   15.8520   -4.1850   -1.2570 H   0  0  0  0  0
   16.4990   -2.6070   -0.7480 H   0  0  0  0  0
   17.1980   -3.5910    1.4180 H   0  0  0  0  0
   16.5510   -5.1700    0.9090 H   0  0  0  0  0
   18.1230   -5.1960   -1.0080 H   0  0  0  0  0
   18.7700   -3.6180   -0.5000 H   0  0  0  0  0
   19.4690   -4.6020    1.6660 H   0  0  0  0  0
   18.8220   -6.1810    1.1580 H   0  0  0  0  0
   20.3940   -6.2080   -0.7600 H   0  0  0  0  0
   21.0410   -4.6290   -0.2520 H   0  0  0  0  0
   21.0930   -7.1920    1.4060 H   0  0  0  0  0
   22.4820   -6.4820    0.5490 H   0  0  0  0  0
   21.7400   -5.6140    1.9140 H   0  0  0  0  0
   -3.5600    0.6640   -1.7950 H   0  0  0  0  0
   -3.5640    1.1520   -0.0830 H   0  0  0  0  0
   -5.5550    2.5720   -0.4930 H   0  0  0  0  0
   -5.5510    2.0840   -2.2040 H   0  0  0  0  0
   -5.8580   -0.2820   -1.5300 H   0  0  0  0  0
   -5.8610    0.2060    0.1810 H   0  0  0  0  0
   -7.8520    1.6260   -0.2280 H   0  0  0  0  0
   -7.8480    1.1380   -1.9400 H   0  0  0  0  0
   -8.1550   -1.2280   -1.2650 H   0  0  0  0  0
   -8.1580   -0.7400    0.4460 H   0  0  0  0  0
  -10.1490    0.6800    0.0370 H   0  0  0  0  0
  -10.1460    0.1920   -1.6750 H   0  0  0  0  0
  -10.4520   -2.1740   -1.0010 H   0  0  0  0  0
  -10.4550   -1.6860    0.7110 H   0  0  0  0  0
  -12.4460   -0.2660    0.3020 H   0  0  0  0  0
  -12.4430   -0.7540   -1.4100 H   0  0  0  0  0
  -12.7490   -3.1210   -0.7360 H   0  0  0  0  0
  -12.7530   -2.6320    0.9760 H   0  0  0  0  0
  -14.7440   -1.2120    0.5670 H   0  0  0  0  0
  -14.7400   -1.7000   -1.1450 H   0  0  0  0  0
  -15.0460   -4.0670   -0.4710 H   0  0  0  0  0
  -15.0500   -3.5790    1.2410 H   0  0  0  0  0
  -17.0410   -2.1580    0.8320 H   0  0  0  0  0
  -17.0370   -2.6460   -0.8800 H   0  0  0  0  0
  -17.3440   -5.0130   -0.2060 H   0  0  0  0  0
  -17.3470   -4.5250    1.5060 H   0  0  0  0  0
  -19.3380   -3.1040    1.0970 H   0  0  0  0  0
  -19.3340   -3.5920   -0.6150 H   0  0  0  0  0
  -19.6410   -5.9590    0.0590 H   0  0  0  0  0
  -19.6440   -5.4710    1.7710 H   0  0  0  0  0
  -21.6350   -4.0500    1.3620 H   0  0  0  0  0
  -21.6320   -4.5380   -0.3500 H   0  0  0  0  0
  -23.2530   -5.8850    0.9560 H   0  0  0  0  0
  -21.9380   -6.9050    0.3240 H   0  0  0  0  0
  -21.9420   -6.4170    2.0360 H   0  0  0  0  0
    2.2960    5.7800    1.0190 H   0  0  0  0  0
  1  3  1  0  0  0
  1  4  1  0  0  0
  1  5  1  0  0  0
  1  6  2  0  0  0
  2  8  1  0  0  0
  2 52  1  0  0  0
  2 53  1  0  0  0
  3  9  1  0  0  0
  4133  1  0  0  0
  5  7  1  0  0  0
  7  8  1  0  0  0
  7 54  1  0  0  0
  7 55  1  0  0  0
  8 56  1  0  0  0
  8 57  1  0  0  0
  9 10  1  0  0  0
  9 58  1  0  0  0
  9 59  1  0  0  0
 10 11  1  0  0  0
 10 32  1  0  0  0
 10 60  1  0  0  0
 11 12  1  0  0  0
 11 61  1  0  0  0
 11 62  1  0  0  0
 12 14  1  0  0  0
 13 14  2  0  0  0
 14 15  1  0  0  0
 15 16  1  0  0  0
 15 63  1  0  0  0
 15 64  1  0  0  0
 16 17  1  0  0  0
 16 65  1  0  0  0
 16 66  1  0  0  0
 17 18  1  0  0  0
 17 67  1  0  0  0
 17 68  1  0  0  0
 18 19  1  0  0  0
 18 69  1  0  0  0
 18 70  1  0  0  0
 19 20  1  0  0  0
 19 71  1  0  0  0
 19 72  1  0  0  0
 20 21  1  0  0  0
 20 73  1  0  0  0
 20 74  1  0  0  0
 21 22  1  0  0  0
 21 75  1  0  0  0
 21 76  1  0  0  0
 22 23  1  0  0  0
 22 77  1  0  0  0
 22 78  1  0  0  0
 23 24  1  0  0  0
 23 79  1  0  0  0
 23 80  1  0  0  0
 24 25  1  0  0  0
 24 81  1  0  0  0
 24 82  1  0  0  0
 25 26  1  0  0  0
 25 83  1  0  0  0
 25 84  1  0  0  0
 26 27  1  0  0  0
 26 85  1  0  0  0
 26 86  1  0  0  0
 27 28  1  0  0  0
 27 87  1  0  0  0
 27 88  1  0  0  0
 28 29  1  0  0  0
 28 89  1  0  0  0
 28 90  1  0  0  0
 29 30  1  0  0  0
 29 91  1  0  0  0
 29 92  1  0  0  0
 30 31  1  0  0  0
 30 93  1  0  0  0
 30 94  1  0  0  0
 31 95  1  0  0  0
 31 96  1  0  0  0
 31 97  1  0  0  0
 32 34  1  0  0  0
 33 34  2  0  0  0
 34 35  1  0  0  0
 35 36  1  0  0  0
 35 98  1  0  0  0
 35 99  1  0  0  0
 36 37  1  0  0  0
 36100  1  0  0  0
 36101  1  0  0  0
 37 38  1  0  0  0
 37102  1  0  0  0
 37103  1  0  0  0
 38 39  1  0  0  0
 38104  1  0  0  0
 38105  1  0  0  0
 39 40  1  0  0  0
 39106  1  0  0  0
 39107  1  0  0  0
 40 41  1  0  0  0
 40108  1  0  0  0
 40109  1  0  0  0
 41 42  1  0  0  0
 41110  1  0  0  0
 41111  1  0  0  0
 42 43  1  0  0  0
 42112  1  0  0  0
 42113  1  0  0  0
 43 44  1  0  0  0
 43114  1  0  0  0
 43115  1  0  0  0
 44 45  1  0  0  0
 44116  1  0  0  0
 44117  1  0  0  0
 45 46  1  0  0  0
 45118  1  0  0  0
 45119  1  0  0  0
 46 47  1  0  0  0
 46120  1  0  0  0
 46121  1  0  0  0
 47 48  1  0  0  0
 47122  1  0  0  0
 47123  1  0  0  0
 48 49  1  0  0  0
 48124  1  0  0  0
 48125  1  0  0  0
 49 50  1  0  0  0
 49126  1  0  0  0
 49127  1  0  0  0
 50 51  1  0  0  0
 50128  1  0  0  0
 50129  1  0  0  0
 51130  1  0  0  0
 51131  1  0  0  0
 51132  1  0  0  0
M  END
$$$$
