43I
  CCTOOLS-0919241029

 64 67  0  0  1  0  0  0  0  0999 V2000
   -1.1330   -2.7740   -3.2290 C   0  0  0  0  0
    3.2760   -2.7410    1.5390 C   0  0  0  0  0
    1.7810   -2.4250    1.6320 C   0  0  0  0  0
    5.4330   -1.8200    0.9420 C   0  0  0  0  0
    6.1300   -0.5490    0.5300 C   0  0  0  0  0
    6.4850    0.3850    1.4850 C   0  0  0  0  0
    7.1240    1.5510    1.1090 C   0  0  0  0  0
    7.4100    1.7830   -0.2250 C   0  0  0  0  0
    7.0550    0.8480   -1.1810 C   0  0  0  0  0
    6.4200   -0.3210   -0.8020 C   0  0  0  0  0
   -3.7970    0.2090   -0.0150 C   0  0  0  0  0
   -0.5860   -2.9530   -1.8110 C   0  0  0  0  0
   -6.0010   -0.4140    0.1710 C   0  0  0  0  0
   -6.3790    0.9380    0.1540 C   0  0  0  0  0
   -4.1770    1.5570   -0.0330 C   0  0  0  0  0
   -7.8020    1.3080    0.2490 C   0  0  0  0  0
   -0.7790   -1.6550   -1.0230 C   0  0  0  0  0
   -2.2740   -1.3570   -0.8890 C   0  0  0  0  0
   -1.8680   -0.2780    1.2400 C   0  0  0  0  0
   -0.3730   -0.5760    1.1050 C   0  0  0  0  0
    1.2320   -2.1630    0.2270 C   0  0  0  0  0
    2.0140   -1.0130   -0.4130 C   0  0  0  0  0
    3.5020   -1.3710   -0.4460 C   0  0  0  0  0
   -2.4580   -0.1320   -0.0980 N   0  0  0  0  0
   -0.1890   -1.8020    0.3150 N   0  0  0  0  0
    3.9800   -1.6100    0.9210 N   0  0  0  0  0
   -4.7170   -0.7410    0.0860 N   0  0  0  0  0
   -5.4470    1.8870    0.0520 N   0  0  0  0  0
   -8.1730    2.5970    0.1200 N   0  0  0  0  0
   -6.9630   -1.4020    0.2770 N   0  0  0  0  0
   -8.6420    0.4500    0.4440 O   0  0  0  0  0
    8.2120    3.2470   -0.6990 CL  0  0  0  0  0
   -2.9680    2.7960   -0.1650 CL  0  0  0  0  0
   -2.2140   -2.6380   -3.1870 H   0  0  0  0  0
   -0.6740   -1.8990   -3.6880 H   0  0  0  0  0
   -0.9010   -3.6590   -3.8210 H   0  0  0  0  0
    3.6730   -2.9140    2.5390 H   0  0  0  0  0
    3.4210   -3.6350    0.9320 H   0  0  0  0  0
    1.2570   -3.2700    2.0760 H   0  0  0  0  0
    1.6350   -1.5390    2.2500 H   0  0  0  0  0
    5.6950   -2.6190    0.2480 H   0  0  0  0  0
    5.7460   -2.0970    1.9490 H   0  0  0  0  0
    6.2620    0.2040    2.5260 H   0  0  0  0  0
    7.4010    2.2810    1.8550 H   0  0  0  0  0
    7.2770    1.0280   -2.2220 H   0  0  0  0  0
    6.1430   -1.0510   -1.5480 H   0  0  0  0  0
   -1.1210   -3.7620   -1.3140 H   0  0  0  0  0
    0.4760   -3.1940   -1.8590 H   0  0  0  0  0
   -0.2900   -0.8350   -1.5480 H   0  0  0  0  0
   -2.7080   -1.2200   -1.8790 H   0  0  0  0  0
   -2.7680   -2.1900   -0.3880 H   0  0  0  0  0
   -2.3560   -1.0990    1.7650 H   0  0  0  0  0
   -2.0060    0.6460    1.8010 H   0  0  0  0  0
    0.1200    0.2570    0.6040 H   0  0  0  0  0
    0.0610   -0.7140    2.0950 H   0  0  0  0  0
    1.3430   -3.0620   -0.3810 H   0  0  0  0  0
    1.6560   -0.8500   -1.4300 H   0  0  0  0  0
    1.8700   -0.1050    0.1730 H   0  0  0  0  0
    3.6450   -2.2710   -1.0440 H   0  0  0  0  0
    4.0630   -0.5480   -0.8880 H   0  0  0  0  0
   -7.5040    3.2810   -0.0360 H   0  0  0  0  0
   -9.1100    2.8410    0.1820 H   0  0  0  0  0
   -7.8820   -1.1640    0.4770 H   0  0  0  0  0
   -6.7190   -2.3320    0.1520 H   0  0  0  0  0
  1 12  1  0  0  0
  1 34  1  0  0  0
  1 35  1  0  0  0
  1 36  1  0  0  0
  2  3  1  0  0  0
  2 26  1  0  0  0
  2 37  1  0  0  0
  2 38  1  0  0  0
  3 21  1  0  0  0
  3 39  1  0  0  0
  3 40  1  0  0  0
  4 26  1  0  0  0
  4  5  1  0  0  0
  4 41  1  0  0  0
  4 42  1  0  0  0
  5  6  2  0  0  0
  6  7  1  0  0  0
  6 43  1  0  0  0
  7 44  1  0  0  0
  8 32  1  0  0  0
  8  7  2  0  0  0
  9  8  1  0  0  0
  9 45  1  0  0  0
 10  9  2  0  0  0
 10  5  1  0  0  0
 10 46  1  0  0  0
 11 27  2  0  0  0
 11 15  1  0  0  0
 12 17  1  0  0  0
 12 47  1  0  0  0
 12 48  1  0  0  0
 13 30  1  0  0  0
 13 14  2  0  0  0
 14 16  1  0  0  0
 15 28  2  0  0  0
 16 31  2  0  0  0
 16 29  1  0  0  0
 17 25  1  0  0  0
 17 18  1  0  0  0
 17 49  1  0  0  0
 18 24  1  0  0  0
 18 50  1  0  0  0
 18 51  1  0  0  0
 19 24  1  0  0  0
 19 20  1  0  0  0
 19 52  1  0  0  0
 19 53  1  0  0  0
 20 54  1  0  0  0
 20 55  1  0  0  0
 21 22  1  0  0  0
 21 56  1  0  0  0
 22 57  1  0  0  0
 22 58  1  0  0  0
 23 22  1  0  0  0
 23 59  1  0  0  0
 23 60  1  0  0  0
 24 11  1  0  0  0
 25 21  1  0  0  0
 25 20  1  0  0  0
 26 23  1  0  0  0
 27 13  1  0  0  0
 28 14  1  0  0  0
 29 61  1  0  0  0
 29 62  1  0  0  0
 30 63  1  0  0  0
 30 64  1  0  0  0
 33 15  1  0  0  0
M  END
$$$$
