4AI
  CCTOOLS-0919241030

 87 90  0  0  1  0  0  0  0  0999 V2000
    1.4470   -5.3210    0.9330 C   0  0  0  0  0
    2.9520   -5.3100    1.2110 C   0  0  0  0  0
    3.5540   -6.6600    0.8150 C   0  0  0  0  0
    2.8930   -7.7720    1.6320 C   0  0  0  0  0
    1.3880   -7.7840    1.3540 C   0  0  0  0  0
    0.7860   -6.4340    1.7500 C   0  0  0  0  0
    0.8450   -3.9720    1.3290 C   0  0  0  0  0
    1.3910   -2.9210    0.4660 N   0  0  0  0  0
    0.9860    0.7310    0.1230 N   0  0  0  0  0
    1.5620   -0.5620   -0.2560 C   0  0  0  0  0
    1.0010   -1.6420    0.6320 C   0  0  0  0  0
    0.1990   -1.3600    1.4970 O   0  0  0  0  0
    3.0830   -0.5080   -0.0950 C   0  0  0  0  0
    3.6650    0.5010   -1.0870 C   0  0  0  0  0
    5.1860    0.5540   -0.9270 C   0  0  0  0  0
    5.7440    1.5210   -1.8760 N   0  0  0  0  0
    7.1000    1.7400   -1.9160 C   0  0  0  0  0
    7.6230    2.6470   -2.8070 N   0  0  0  0  0
    7.8900    1.0890   -1.1100 N   0  0  0  0  0
    0.9170    1.7290   -0.7800 C   0  0  0  0  0
   -1.1430    2.9480   -0.3190 N   0  0  0  0  0
    1.3320    1.5570   -1.9060 O   0  0  0  0  0
    0.8320    3.4650    0.9930 C   0  0  0  0  0
    0.0290    4.6150    1.5420 C   0  0  0  0  0
    0.6000    5.3730    2.5570 C   0  0  0  0  0
   -0.0860    6.4330    3.1120 C   0  0  0  0  0
   -1.3530    6.7470    2.6560 C   0  0  0  0  0
   -1.9210    5.9980    1.6450 C   0  0  0  0  0
   -1.2250    4.9310    1.0880 C   0  0  0  0  0
   -1.8970    4.1720   -0.0290 C   0  0  0  0  0
    0.3240    3.0580   -0.3890 C   0  0  0  0  0
   -1.7670    1.7680   -0.5070 C   0  0  0  0  0
   -3.2720    1.7080   -0.5310 C   0  0  0  0  0
   -3.7210    0.2630   -0.7580 C   0  0  0  0  0
   -5.2270    0.2020   -0.7820 C   0  0  0  0  0
   -5.9080   -1.0860   -0.9870 C   0  0  0  0  0
   -7.3050   -1.1460   -1.0100 C   0  0  0  0  0
   -7.9370   -2.3570   -1.2030 C   0  0  0  0  0
   -7.1910   -3.5100   -1.3730 C   0  0  0  0  0
   -5.8080   -3.4590   -1.3520 C   0  0  0  0  0
   -5.1620   -2.2550   -1.1660 C   0  0  0  0  0
   -1.1170    0.7560   -0.6570 O   0  0  0  0  0
   -5.8770    1.2150   -0.6320 O   0  0  0  0  0
    1.2750   -5.4980   -0.1280 H   0  0  0  0  0
    3.4230   -4.5170    0.6300 H   0  0  0  0  0
    3.1240   -5.1330    2.2730 H   0  0  0  0  0
    3.3820   -6.8370   -0.2470 H   0  0  0  0  0
    4.6260   -6.6520    1.0130 H   0  0  0  0  0
    3.3220   -8.7340    1.3490 H   0  0  0  0  0
    3.0650   -7.5950    2.6930 H   0  0  0  0  0
    1.2160   -7.9610    0.2920 H   0  0  0  0  0
    0.9180   -8.5760    1.9350 H   0  0  0  0  0
    0.9580   -6.2570    2.8110 H   0  0  0  0  0
   -0.2850   -6.4420    1.5520 H   0  0  0  0  0
   -0.2380   -4.0090    1.2150 H   0  0  0  0  0
    1.0940   -3.7540    2.3680 H   0  0  0  0  0
    2.0330   -3.1470   -0.2260 H   0  0  0  0  0
    0.6540    0.8680    1.0250 H   0  0  0  0  0
    1.3140   -0.7800   -1.2940 H   0  0  0  0  0
    3.3310   -0.2040    0.9210 H   0  0  0  0  0
    3.5040   -1.4950   -0.2920 H   0  0  0  0  0
    3.4180    0.1960   -2.1040 H   0  0  0  0  0
    3.2450    1.4870   -0.8910 H   0  0  0  0  0
    5.4340    0.8590    0.0900 H   0  0  0  0  0
    5.6070   -0.4320   -1.1230 H   0  0  0  0  0
    5.1560    2.0060   -2.4760 H   0  0  0  0  0
    7.0350    3.1320   -3.4070 H   0  0  0  0  0
    8.5800    2.8020   -2.8360 H   0  0  0  0  0
    8.8470    1.2440   -1.1390 H   0  0  0  0  0
    1.8780    3.7620    0.9170 H   0  0  0  0  0
    0.7480    2.6150    1.6700 H   0  0  0  0  0
    1.5890    5.1290    2.9160 H   0  0  0  0  0
    0.3660    7.0170    3.9000 H   0  0  0  0  0
   -1.8960    7.5740    3.0890 H   0  0  0  0  0
   -2.9110    6.2430    1.2890 H   0  0  0  0  0
   -1.9310    4.7970   -0.9220 H   0  0  0  0  0
   -2.9120    3.9110    0.2700 H   0  0  0  0  0
    0.6020    3.8150   -1.1230 H   0  0  0  0  0
   -3.6660    2.0650    0.4210 H   0  0  0  0  0
   -3.6490    2.3360   -1.3380 H   0  0  0  0  0
   -3.3280   -0.0940   -1.7100 H   0  0  0  0  0
   -3.3450   -0.3660    0.0490 H   0  0  0  0  0
   -7.8880   -0.2470   -0.8770 H   0  0  0  0  0
   -9.0150   -2.4050   -1.2210 H   0  0  0  0  0
   -7.6910   -4.4560   -1.5230 H   0  0  0  0  0
   -5.2330   -4.3630   -1.4900 H   0  0  0  0  0
   -4.0830   -2.2160   -1.1500 H   0  0  0  0  0
  1  6  1  0  0  0
  1  2  1  0  0  0
  1 44  1  0  0  0
  2  3  1  0  0  0
  2 45  1  0  0  0
  2 46  1  0  0  0
  3 47  1  0  0  0
  3 48  1  0  0  0
  4  3  1  0  0  0
  4 49  1  0  0  0
  4 50  1  0  0  0
  5  4  1  0  0  0
  5 51  1  0  0  0
  5 52  1  0  0  0
  6  5  1  0  0  0
  6 53  1  0  0  0
  6 54  1  0  0  0
  7  1  1  0  0  0
  7 55  1  0  0  0
  7 56  1  0  0  0
  8  7  1  0  0  0
  8 57  1  0  0  0
  9 58  1  0  0  0
 10 11  1  0  0  0
 10  9  1  0  0  0
 10 59  1  0  0  0
 11  8  1  0  0  0
 12 11  2  0  0  0
 13 10  1  0  0  0
 13 60  1  0  0  0
 13 61  1  0  0  0
 14 13  1  0  0  0
 14 62  1  0  0  0
 14 63  1  0  0  0
 15 14  1  0  0  0
 15 16  1  0  0  0
 15 64  1  0  0  0
 15 65  1  0  0  0
 16 66  1  0  0  0
 17 16  1  0  0  0
 17 18  1  0  0  0
 18 67  1  0  0  0
 18 68  1  0  0  0
 19 17  2  0  0  0
 19 69  1  0  0  0
 20  9  1  0  0  0
 20 31  1  0  0  0
 21 32  1  0  0  0
 22 20  2  0  0  0
 23 31  1  0  0  0
 23 70  1  0  0  0
 23 71  1  0  0  0
 24 23  1  0  0  0
 24 29  2  0  0  0
 25 24  1  0  0  0
 25 72  1  0  0  0
 26 25  2  0  0  0
 26 27  1  0  0  0
 26 73  1  0  0  0
 27 28  2  0  0  0
 27 74  1  0  0  0
 28 29  1  0  0  0
 28 75  1  0  0  0
 29 30  1  0  0  0
 30 21  1  0  0  0
 30 76  1  0  0  0
 30 77  1  0  0  0
 31 21  1  0  0  0
 31 78  1  0  0  0
 32 42  2  0  0  0
 32 33  1  0  0  0
 33 79  1  0  0  0
 33 80  1  0  0  0
 34 33  1  0  0  0
 34 35  1  0  0  0
 34 81  1  0  0  0
 34 82  1  0  0  0
 35 43  2  0  0  0
 36 35  1  0  0  0
 36 37  2  0  0  0
 37 83  1  0  0  0
 38 37  1  0  0  0
 38 84  1  0  0  0
 39 38  2  0  0  0
 39 85  1  0  0  0
 40 41  2  0  0  0
 40 39  1  0  0  0
 40 86  1  0  0  0
 41 36  1  0  0  0
 41 87  1  0  0  0
M  END
$$$$
