4IE
  CCTOOLS-0919241031

 58 61  0  0  1  0  0  0  0  0999 V2000
    7.1510    0.4330    0.3250 C   0  0  0  0  0
    1.6640   -0.3380    1.1710 C   0  0  0  0  0
    1.9190    0.9930   -0.8080 C   0  0  0  0  0
    1.1310    2.0000    1.2210 C   0  0  0  0  0
   -0.2890    1.6850    0.8270 C   0  0  0  0  0
   -1.0650    0.8750    1.6360 C   0  0  0  0  0
   -2.3660    0.5830    1.2790 C   0  0  0  0  0
   -2.8970    1.1050    0.1020 C   0  0  0  0  0
   -2.1110    1.9200   -0.7100 C   0  0  0  0  0
   -0.8130    2.2110   -0.3410 C   0  0  0  0  0
   -4.2950    0.7940   -0.2870 C   0  0  0  0  0
    6.3890   -0.1330   -0.8740 C   0  0  0  0  0
   -5.1660    1.8210   -0.6470 C   0  0  0  0  0
   -6.4650    1.5260   -1.0080 C   0  0  0  0  0
   -6.9040    0.2130   -1.0130 C   0  0  0  0  0
   -6.0450   -0.8100   -0.6560 C   0  0  0  0  0
   -4.7400   -0.5270   -0.2990 C   0  0  0  0  0
    7.0960    0.1200   -2.2070 C   0  0  0  0  0
    5.9190   -1.5900   -0.6850 C   0  0  0  0  0
    5.5950   -1.8710    0.7890 C   0  0  0  0  0
    4.6720   -0.8020    1.3200 C   0  0  0  0  0
    4.3300    0.2030    0.5470 C   0  0  0  0  0
    4.8910    0.2230   -0.8860 C   0  0  0  0  0
    4.6920   -1.1810   -1.5180 C   0  0  0  0  0
    3.4170    1.2950    1.0410 C   0  0  0  0  0
    2.0330    0.9880    0.6560 N   0  3  0  0  0
   -3.5640   -1.9280    0.1800 BR  0  0  0  0  0
    7.1940    1.5190    0.2490 H   0  0  0  0  0
    6.6390    0.1530    1.2460 H   0  0  0  0  0
    8.1630    0.0290    0.3360 H   0  0  0  0  0
    2.3480   -1.0860    0.7700 H   0  0  0  0  0
    1.7270   -0.3350    2.2590 H   0  0  0  0  0
    0.6450   -0.5760    0.8660 H   0  0  0  0  0
    0.8920    0.7650   -1.0940 H   0  0  0  0  0
    2.1920    1.9770   -1.1900 H   0  0  0  0  0
    2.5880    0.2420   -1.2270 H   0  0  0  0  0
    1.4040    2.9840    0.8390 H   0  0  0  0  0
    1.2150    1.9960    2.3080 H   0  0  0  0  0
   -0.6530    0.4700    2.5480 H   0  0  0  0  0
   -2.9710   -0.0500    1.9120 H   0  0  0  0  0
   -2.5170    2.3280   -1.6240 H   0  0  0  0  0
   -0.2040    2.8460   -0.9660 H   0  0  0  0  0
   -4.8250    2.8450   -0.6440 H   0  0  0  0  0
   -7.1400    2.3210   -1.2870 H   0  0  0  0  0
   -7.9210   -0.0120   -1.2960 H   0  0  0  0  0
   -6.3930   -1.8320   -0.6600 H   0  0  0  0  0
    8.1370   -0.1940   -2.1320 H   0  0  0  0  0
    6.6020   -0.4470   -2.9950 H   0  0  0  0  0
    7.0540    1.1840   -2.4440 H   0  0  0  0  0
    6.5570   -2.3430   -1.1470 H   0  0  0  0  0
    5.1110   -2.8440    0.8750 H   0  0  0  0  0
    6.5180   -1.8740    1.3690 H   0  0  0  0  0
    4.2930   -0.8630    2.3300 H   0  0  0  0  0
    4.5970    1.0880   -1.4820 H   0  0  0  0  0
    4.8610   -1.2080   -2.5950 H   0  0  0  0  0
    3.7690   -1.6750   -1.2170 H   0  0  0  0  0
    3.4850    1.3630    2.1270 H   0  0  0  0  0
    3.7140    2.2460    0.5980 H   0  0  0  0  0
  1 28  1  0  0  0
  1 29  1  0  0  0
  1 30  1  0  0  0
  2 26  1  0  0  0
  2 31  1  0  0  0
  2 32  1  0  0  0
  2 33  1  0  0  0
  3 26  1  0  0  0
  3 34  1  0  0  0
  3 35  1  0  0  0
  3 36  1  0  0  0
  4  5  1  0  0  0
  4 37  1  0  0  0
  4 38  1  0  0  0
  5  6  1  0  0  0
  6  7  2  0  0  0
  6 39  1  0  0  0
  7 40  1  0  0  0
  8  7  1  0  0  0
  8 11  1  0  0  0
  9  8  2  0  0  0
  9 41  1  0  0  0
 10  5  2  0  0  0
 10  9  1  0  0  0
 10 42  1  0  0  0
 11 13  1  0  0  0
 12 18  1  0  0  0
 12  1  1  0  0  0
 13 14  2  0  0  0
 13 43  1  0  0  0
 14 44  1  0  0  0
 15 14  1  0  0  0
 15 45  1  0  0  0
 16 15  2  0  0  0
 16 46  1  0  0  0
 17 11  2  0  0  0
 17 16  1  0  0  0
 18 47  1  0  0  0
 18 48  1  0  0  0
 18 49  1  0  0  0
 19 12  1  0  0  0
 19 50  1  0  0  0
 20 19  1  0  0  0
 20 21  1  0  0  0
 20 51  1  0  0  0
 20 52  1  0  0  0
 21 22  2  0  0  0
 21 53  1  0  0  0
 22 25  1  0  0  0
 23 22  1  0  0  0
 23 12  1  0  0  0
 23 54  1  0  0  0
 24 19  1  0  0  0
 24 23  1  0  0  0
 24 55  1  0  0  0
 24 56  1  0  0  0
 25 57  1  0  0  0
 25 58  1  0  0  0
 26 25  1  0  0  0
 26  4  1  0  0  0
 27 17  1  0  0  0
M  CHG  1  26   1
M  END
$$$$
