5YM
  CCTOOLS-0919241038

 62 61  0  0  0  0  0  0  0  0999 V2000
   -0.7420   -1.2590    0.5490 C   0  0  0  0  0
    0.1660   -2.4280    0.1590 C   0  0  0  0  0
    1.5990   -2.1320    0.6070 C   0  0  0  0  0
    2.4930   -3.2830    0.2230 C   0  0  0  0  0
   -2.1740   -1.5550    0.1010 C   0  0  0  0  0
   -3.0820   -0.3870    0.4910 C   0  0  0  0  0
   -9.1850    0.8070   -0.1980 C   0  0  0  0  0
   -4.5150   -0.6820    0.0430 C   0  0  0  0  0
   -5.4230    0.4860    0.4340 C   0  0  0  0  0
   -6.8340    0.1950   -0.0080 C   0  0  0  0  0
  -10.0920    1.9750    0.1930 C   0  0  0  0  0
   11.2300    3.2950    0.4050 C   0  0  0  0  0
    9.7830    3.1360   -0.0650 C   0  0  0  0  0
    9.3180    1.7010    0.1910 C   0  0  0  0  0
    7.8710    1.5420   -0.2800 C   0  0  0  0  0
    7.4070    0.1060   -0.0240 C   0  0  0  0  0
    5.9590   -0.0530   -0.4940 C   0  0  0  0  0
    5.4950   -1.4880   -0.2390 C   0  0  0  0  0
    4.0480   -1.6470   -0.7090 C   0  0  0  0  0
    3.5900   -3.0600   -0.4570 C   0  0  0  0  0
   -7.8130    1.0890    0.2310 N   0  0  0  0  0
   -7.0890   -0.8450   -0.5780 O   0  0  0  0  0
   -9.7030    3.1430   -0.5320 O   0  0  0  0  0
   -0.7190   -1.1280    1.6310 H   0  0  0  0  0
   -0.3900   -0.3480    0.0650 H   0  0  0  0  0
   -0.1860   -3.3380    0.6430 H   0  0  0  0  0
    0.1440   -2.5590   -0.9230 H   0  0  0  0  0
    1.9500   -1.2210    0.1230 H   0  0  0  0  0
    1.6210   -2.0000    1.6890 H   0  0  0  0  0
    2.2290   -4.2900    0.5080 H   0  0  0  0  0
   -2.1970   -1.6870   -0.9810 H   0  0  0  0  0
   -2.5260   -2.4660    0.5860 H   0  0  0  0  0
   -3.0600   -0.2550    1.5730 H   0  0  0  0  0
   -2.7310    0.5240    0.0070 H   0  0  0  0  0
   -9.5360   -0.1040    0.2870 H   0  0  0  0  0
   -9.2070    0.6750   -1.2800 H   0  0  0  0  0
   -4.5370   -0.8140   -1.0380 H   0  0  0  0  0
   -4.8670   -1.5930    0.5280 H   0  0  0  0  0
   -5.4000    0.6180    1.5150 H   0  0  0  0  0
   -5.0710    1.3970   -0.0510 H   0  0  0  0  0
  -11.1270    1.7270   -0.0460 H   0  0  0  0  0
  -10.0020    2.1640    1.2620 H   0  0  0  0  0
   11.8690    2.6030   -0.1440 H   0  0  0  0  0
   11.5610    4.3170    0.2230 H   0  0  0  0  0
   11.2920    3.0770    1.4720 H   0  0  0  0  0
    9.1440    3.8280    0.4850 H   0  0  0  0  0
    9.7210    3.3530   -1.1310 H   0  0  0  0  0
    9.9570    1.0090   -0.3590 H   0  0  0  0  0
    9.3800    1.4830    1.2570 H   0  0  0  0  0
    7.2330    2.2330    0.2700 H   0  0  0  0  0
    7.8100    1.7590   -1.3460 H   0  0  0  0  0
    8.0450   -0.5850   -0.5730 H   0  0  0  0  0
    7.4680   -0.1110    1.0420 H   0  0  0  0  0
    5.3210    0.6390    0.0550 H   0  0  0  0  0
    5.8980    0.1650   -1.5610 H   0  0  0  0  0
    6.1330   -2.1800   -0.7880 H   0  0  0  0  0
    5.5560   -1.7050    0.8270 H   0  0  0  0  0
    3.4090   -0.9550   -0.1600 H   0  0  0  0  0
    3.9860   -1.4290   -1.7750 H   0  0  0  0  0
    4.1670   -3.8910   -0.8380 H   0  0  0  0  0
   -7.6090    1.9210    0.6880 H   0  0  0  0  0
  -10.2370    3.9250   -0.3340 H   0  0  0  0  0
  1  5  1  0  0  0
  1 24  1  0  0  0
  1 25  1  0  0  0
  2  1  1  0  0  0
  2 26  1  0  0  0
  2 27  1  0  0  0
  3  4  1  0  0  0
  3  2  1  0  0  0
  3 28  1  0  0  0
  3 29  1  0  0  0
  4 30  1  0  0  0
  5  6  1  0  0  0
  5 31  1  0  0  0
  5 32  1  0  0  0
  6  8  1  0  0  0
  6 33  1  0  0  0
  6 34  1  0  0  0
  7 35  1  0  0  0
  7 36  1  0  0  0
  8 37  1  0  0  0
  8 38  1  0  0  0
  9  8  1  0  0  0
  9 10  1  0  0  0
  9 39  1  0  0  0
  9 40  1  0  0  0
 10 21  1  0  0  0
 10 22  2  0  0  0
 11  7  1  0  0  0
 11 41  1  0  0  0
 11 42  1  0  0  0
 12 13  1  0  0  0
 12 43  1  0  0  0
 12 44  1  0  0  0
 12 45  1  0  0  0
 13 14  1  0  0  0
 13 46  1  0  0  0
 13 47  1  0  0  0
 14 15  1  0  0  0
 14 48  1  0  0  0
 14 49  1  0  0  0
 15 50  1  0  0  0
 15 51  1  0  0  0
 16 17  1  0  0  0
 16 15  1  0  0  0
 16 52  1  0  0  0
 16 53  1  0  0  0
 17 18  1  0  0  0
 17 54  1  0  0  0
 17 55  1  0  0  0
 18 19  1  0  0  0
 18 56  1  0  0  0
 18 57  1  0  0  0
 19 20  1  0  0  0
 19 58  1  0  0  0
 19 59  1  0  0  0
 20  4  2  0  0  0
 20 60  1  0  0  0
 21  7  1  0  0  0
 21 61  1  0  0  0
 23 11  1  0  0  0
 23 62  1  0  0  0
M  END
$$$$
