6MD
  CCTOOLS-0919241041

 35 37  0  0  1  0  0  0  0  0999 V2000
   -4.6640   -2.3630    0.6530 O   0  0  0  0  0
   -4.4150   -1.3100   -0.2800 C   0  0  0  0  0
   -3.4920   -0.2700    0.3590 C   0  0  0  0  0
   -2.1940   -0.8430    0.5890 O   0  0  0  0  0
   -3.3040    0.9230   -0.5990 C   0  0  0  0  0
   -3.7650    2.1310    0.0100 O   0  0  0  0  0
   -1.7740    0.9830   -0.8320 C   0  0  0  0  0
   -1.3120    2.3350   -0.8320 O   0  0  0  0  0
   -1.2270    0.2110    0.3960 C   0  0  0  0  0
    0.0950   -0.3480    0.1060 N   0  0  0  0  0
    0.3530   -1.5810   -0.4140 C   0  0  0  0  0
    1.6370   -1.7500   -0.5420 N   0  0  0  0  0
    2.2830   -0.6400   -0.1130 C   0  0  0  0  0
    3.6310   -0.2560   -0.0150 C   0  0  0  0  0
    4.6420   -1.1130   -0.4140 N   0  0  0  0  0
    3.9140    0.9490    0.4690 N   0  0  0  0  0
    2.9560    1.7730    0.8530 C   0  0  0  0  0
    1.6800    1.4570    0.7790 N   0  0  0  0  0
    1.3010    0.2760    0.3030 C   0  0  0  0  0
    6.0420   -0.6960   -0.3050 C   0  0  0  0  0
   -5.2430   -3.0590    0.3140 H   0  0  0  0  0
   -3.9390   -1.7190   -1.1710 H   0  0  0  0  0
   -5.3580   -0.8380   -0.5560 H   0  0  0  0  0
   -3.9180    0.0730    1.3020 H   0  0  0  0  0
   -3.8260    0.7440   -1.5380 H   0  0  0  0  0
   -4.7060    2.1250    0.2320 H   0  0  0  0  0
   -1.5030    0.4810   -1.7610 H   0  0  0  0  0
   -1.6970    2.8830   -1.5300 H   0  0  0  0  0
   -1.1860    0.8590    1.2710 H   0  0  0  0  0
   -0.3970   -2.3110   -0.6810 H   0  0  0  0  0
    4.4230   -1.9900   -0.7660 H   0  0  0  0  0
    3.2300    2.7430    1.2410 H   0  0  0  0  0
    6.2020    0.1990   -0.9070 H   0  0  0  0  0
    6.2770   -0.4800    0.7370 H   0  0  0  0  0
    6.6890   -1.4970   -0.6650 H   0  0  0  0  0
  1 21  1  0  0  0
  2  1  1  0  0  0
  2 22  1  0  0  0
  2 23  1  0  0  0
  3  4  1  0  0  0
  3  2  1  0  0  0
  3  5  1  0  0  0
  3 24  1  0  0  0
  4  9  1  0  0  0
  5  7  1  0  0  0
  5 25  1  0  0  0
  6  5  1  0  0  0
  6 26  1  0  0  0
  7  8  1  0  0  0
  7 27  1  0  0  0
  8 28  1  0  0  0
  9 10  1  0  0  0
  9  7  1  0  0  0
  9 29  1  0  0  0
 10 11  1  0  0  0
 11 30  1  0  0  0
 12 11  2  0  0  0
 13 12  1  0  0  0
 14 15  1  0  0  0
 14 13  2  0  0  0
 15 31  1  0  0  0
 16 14  1  0  0  0
 17 16  2  0  0  0
 17 18  1  0  0  0
 17 32  1  0  0  0
 18 19  2  0  0  0
 19 13  1  0  0  0
 19 10  1  0  0  0
 20 15  1  0  0  0
 20 33  1  0  0  0
 20 34  1  0  0  0
 20 35  1  0  0  0
M  END
$$$$
