7LD
  CCTOOLS-0919241029

 49 52  0  0  1  0  0  0  0  0999 V2000
    5.1570    0.3140    0.4480 N   0  0  0  0  0
   -3.8790    0.5030    0.2910 N   0  0  0  0  0
    4.0580    2.5640   -0.1240 C   0  0  0  0  0
    2.7910    3.0640   -0.4010 C   0  0  0  0  0
    1.7040    0.9420   -0.1740 C   0  0  0  0  0
    3.3160   -0.9410    0.4350 C   0  0  0  0  0
    4.6320   -0.9570    0.6180 C   0  0  0  0  0
   -0.6070    0.2870    0.0430 C   0  0  0  0  0
   -1.3240   -1.9210   -0.7820 C   0  0  0  0  0
    2.2170   -1.9700    0.4930 C   0  0  0  0  0
   -3.6020    0.6300    1.7240 C   0  0  0  0  0
   -4.9520    2.4720   -0.6860 C   0  0  0  0  0
   -0.0630   -2.4490   -0.2520 N   0  0  0  0  0
    0.2600   -3.7480   -0.8580 C   0  0  0  0  0
    1.0480   -1.5160   -0.3930 C   0  0  0  0  0
    2.9930    0.4450    0.1160 C   0  0  0  0  0
    4.1680    1.2000    0.1430 C   0  0  0  0  0
    1.6320    2.2920   -0.4310 C   0  0  0  0  0
    0.6440   -0.0840   -0.1640 C   0  0  0  0  0
   -1.7350   -0.7100    0.0620 C   0  0  0  0  0
   -2.9760   -0.0830   -0.5200 C   0  0  0  0  0
   -3.1610   -0.1050   -1.7180 O   0  0  0  0  0
   -5.1360    1.0130   -0.2610 C   0  0  0  0  0
   -4.2170   -0.5570    2.4690 C   0  0  0  0  0
    6.0950    0.5420    0.5380 H   0  0  0  0  0
    4.9250    3.2080   -0.1170 H   0  0  0  0  0
    2.7000    4.1210   -0.6060 H   0  0  0  0  0
    5.2100   -1.8360    0.8640 H   0  0  0  0  0
   -0.8260    1.3320    0.2040 H   0  0  0  0  0
   -1.1860   -1.6150   -1.8190 H   0  0  0  0  0
   -2.0980   -2.6870   -0.7260 H   0  0  0  0  0
    2.5960   -2.9270    0.1330 H   0  0  0  0  0
    1.8730   -2.0780    1.5210 H   0  0  0  0  0
   -2.5250    0.6430    1.8870 H   0  0  0  0  0
   -4.0370    1.5570    2.0970 H   0  0  0  0  0
   -5.8880    2.8510   -1.0960 H   0  0  0  0  0
   -4.6660    3.0690    0.1800 H   0  0  0  0  0
   -4.1720    2.5330   -1.4440 H   0  0  0  0  0
    1.1360   -4.1710   -0.3660 H   0  0  0  0  0
   -0.5860   -4.4240   -0.7390 H   0  0  0  0  0
    0.4700   -3.6120   -1.9190 H   0  0  0  0  0
    1.3890   -1.5820   -1.4260 H   0  0  0  0  0
    0.6800    2.7510   -0.6550 H   0  0  0  0  0
   -1.9290   -1.0250    1.0870 H   0  0  0  0  0
   -5.4220    0.4160   -1.1260 H   0  0  0  0  0
   -5.9170    0.9520    0.4980 H   0  0  0  0  0
   -5.2940   -0.5700    2.3060 H   0  0  0  0  0
   -3.7820   -1.4850    2.0960 H   0  0  0  0  0
   -4.0110   -0.4630    3.5350 H   0  0  0  0  0
  1 17  1  0  0  0
  1 25  1  0  0  0
  2 23  1  0  0  0
  3  4  2  0  0  0
  3 26  1  0  0  0
  4 27  1  0  0  0
  5 18  2  0  0  0
  6 16  1  0  0  0
  7  6  2  0  0  0
  7  1  1  0  0  0
  7 28  1  0  0  0
  8 29  1  0  0  0
  9 20  1  0  0  0
  9 30  1  0  0  0
  9 31  1  0  0  0
 10  6  1  0  0  0
 10 15  1  0  0  0
 10 32  1  0  0  0
 10 33  1  0  0  0
 11  2  1  0  0  0
 11 24  1  0  0  0
 11 34  1  0  0  0
 11 35  1  0  0  0
 12 23  1  0  0  0
 12 36  1  0  0  0
 12 37  1  0  0  0
 12 38  1  0  0  0
 13 15  1  0  0  0
 13  9  1  0  0  0
 14 13  1  0  0  0
 14 39  1  0  0  0
 14 40  1  0  0  0
 14 41  1  0  0  0
 15 19  1  0  0  0
 15 42  1  0  0  0
 16 17  2  0  0  0
 16  5  1  0  0  0
 17  3  1  0  0  0
 18  4  1  0  0  0
 18 43  1  0  0  0
 19  5  1  0  0  0
 19  8  2  0  0  0
 20  8  1  0  0  0
 20 21  1  0  0  0
 20 44  1  0  0  0
 21  2  1  0  0  0
 21 22  2  0  0  0
 23 45  1  0  0  0
 23 46  1  0  0  0
 24 47  1  0  0  0
 24 48  1  0  0  0
 24 49  1  0  0  0
M  END
$$$$
