7V7
  CCTOOLS-0919241030

 53 55  0  0  0  0  0  0  0  0999 V2000
    0.9390    0.5380    0.6980 C   0  0  0  0  0
    3.7240   -0.3770    0.5550 C   0  0  0  0  0
    5.6820    1.1680    0.7600 C   0  0  0  0  0
    7.8410    0.5670   -0.0840 C   0  0  0  0  0
   -3.7910    0.6640   -0.0340 C   0  0  0  0  0
   -3.9080    1.6480    0.9390 C   0  0  0  0  0
   -4.9780    2.5220    0.9110 C   0  0  0  0  0
   -5.8190    1.4370   -1.0540 C   0  0  0  0  0
   -2.9060   -1.5270    0.2420 C   0  0  0  0  0
   -4.3080   -2.0630    0.3740 C   0  0  0  0  0
   -4.2550   -3.5350    0.7880 C   0  0  0  0  0
   -1.3510    0.2800   -0.2620 C   0  0  0  0  0
   -0.7320   -0.4880   -1.4330 C   0  0  0  0  0
    0.7040   -0.0060   -1.6510 C   0  0  0  0  0
   -0.4900    0.0720    0.9870 C   0  0  0  0  0
    2.9030    0.0960   -0.6460 C   0  0  0  0  0
    5.1770   -0.0460    0.3330 C   0  0  0  0  0
    7.0140    1.4740    0.5510 C   0  0  0  0  0
    7.3380   -0.6520   -0.5010 C   0  0  0  0  0
    6.0050   -0.9560   -0.2970 C   0  0  0  0  0
   -5.9320    2.4160   -0.0850 C   0  0  0  0  0
   -4.7510    0.5610   -1.0320 C   0  0  0  0  0
   -2.7060   -0.2190   -0.0110 N   0  0  0  0  0
    1.4870   -0.2270   -0.4290 N   0  0  0  0  0
   -1.9580   -2.2730    0.3630 O   0  0  0  0  0
    0.9310    1.5990    0.4480 H   0  0  0  0  0
    1.5590    0.3780    1.5810 H   0  0  0  0  0
    3.3710    0.1240    1.4570 H   0  0  0  0  0
    3.6110   -1.4550    0.6710 H   0  0  0  0  0
    5.0360    1.8790    1.2520 H   0  0  0  0  0
    8.8820    0.8040   -0.2430 H   0  0  0  0  0
   -3.1640    1.7310    1.7170 H   0  0  0  0  0
   -5.0690    3.2870    1.6670 H   0  0  0  0  0
   -6.5650    1.3570   -1.8310 H   0  0  0  0  0
   -4.8460   -1.4910    1.1300 H   0  0  0  0  0
   -4.8230   -1.9730   -0.5830 H   0  0  0  0  0
   -5.2700   -3.9220    0.8840 H   0  0  0  0  0
   -3.7180   -4.1060    0.0320 H   0  0  0  0  0
   -3.7410   -3.6240    1.7450 H   0  0  0  0  0
   -1.3930    1.3420   -0.5030 H   0  0  0  0  0
   -0.7270   -1.5540   -1.2070 H   0  0  0  0  0
   -1.3180   -0.3100   -2.3350 H   0  0  0  0  0
    1.1520   -0.5610   -2.4760 H   0  0  0  0  0
    0.6970    1.0580   -1.8910 H   0  0  0  0  0
   -0.4810   -0.9850    1.2510 H   0  0  0  0  0
   -0.9010    0.6510    1.8130 H   0  0  0  0  0
    3.0170    1.1740   -0.7610 H   0  0  0  0  0
    3.2570   -0.4050   -1.5470 H   0  0  0  0  0
    7.4090    2.4230    0.8850 H   0  0  0  0  0
    7.9870   -1.3660   -0.9860 H   0  0  0  0  0
    5.6110   -1.9040   -0.6300 H   0  0  0  0  0
   -6.7680    3.1000   -0.1040 H   0  0  0  0  0
   -4.6630   -0.2030   -1.7900 H   0  0  0  0  0
  1 15  1  0  0  0
  1 26  1  0  0  0
  1 27  1  0  0  0
  2 28  1  0  0  0
  2 29  1  0  0  0
  3 17  2  0  0  0
  3 30  1  0  0  0
  4 19  1  0  0  0
  4 31  1  0  0  0
  5  6  2  0  0  0
  5 22  1  0  0  0
  6  7  1  0  0  0
  6 32  1  0  0  0
  7 21  2  0  0  0
  7 33  1  0  0  0
  8 21  1  0  0  0
  8 34  1  0  0  0
  9 23  1  0  0  0
  9 10  1  0  0  0
 10 35  1  0  0  0
 10 36  1  0  0  0
 11 10  1  0  0  0
 11 37  1  0  0  0
 11 38  1  0  0  0
 11 39  1  0  0  0
 12 15  1  0  0  0
 12 23  1  0  0  0
 12 40  1  0  0  0
 13 12  1  0  0  0
 13 41  1  0  0  0
 13 42  1  0  0  0
 14 24  1  0  0  0
 14 13  1  0  0  0
 14 43  1  0  0  0
 14 44  1  0  0  0
 15 45  1  0  0  0
 15 46  1  0  0  0
 16  2  1  0  0  0
 16 24  1  0  0  0
 16 47  1  0  0  0
 16 48  1  0  0  0
 17 20  1  0  0  0
 17  2  1  0  0  0
 18  4  2  0  0  0
 18  3  1  0  0  0
 18 49  1  0  0  0
 19 20  2  0  0  0
 19 50  1  0  0  0
 20 51  1  0  0  0
 21 52  1  0  0  0
 22  8  2  0  0  0
 22 53  1  0  0  0
 23  5  1  0  0  0
 24  1  1  0  0  0
 25  9  2  0  0  0
M  END
$$$$
