7WT
  CCTOOLS-0919241030

 62 63  0  0  1  0  0  0  0  0999 V2000
    2.8740    0.8920   -0.8280 C   0  0  0  0  0
    6.1020   -1.1090   -0.3430 C   0  0  0  0  0
    6.9580   -3.3160    0.0200 C   0  0  0  0  0
    7.9540   -1.4470    1.1360 C   0  0  0  0  0
   -3.0580    1.6250   -0.9680 C   0  0  0  0  0
   -2.6660    0.4900   -1.8790 C   0  0  0  0  0
   -2.8690   -0.7490   -1.5070 C   0  0  0  0  0
   -4.7740   -2.0240   -0.5610 C   0  0  0  0  0
   -6.6740   -3.2890    0.4080 C   0  0  0  0  0
   -2.2700    3.7680    0.0910 C   0  0  0  0  0
   -1.8560    2.5460   -0.7550 C   0  0  0  0  0
   -0.7630    1.8120    0.0410 C   0  0  0  0  0
   -0.5510    2.6120    1.3420 C   0  0  0  0  0
   -1.8840    3.3770    1.5390 C   0  0  0  0  0
    0.5360    1.7710   -0.7670 C   0  0  0  0  0
    1.5750    0.9320   -0.0200 C   0  0  0  0  0
    3.8700   -0.0470   -0.1450 C   0  0  0  0  0
    5.1210   -0.1850   -1.0160 C   0  0  0  0  0
    6.0580   -2.4670   -0.5970 C   0  0  0  0  0
    7.9030   -2.8060    0.8910 C   0  0  0  0  0
    7.0500   -0.5990    0.5240 C   0  0  0  0  0
   -3.6450   -1.0400   -0.2480 C   0  0  0  0  0
   -5.5620   -2.3190    0.7170 C   0  0  0  0  0
   -3.6780    3.9940   -0.0080 O   0  0  0  0  0
   -0.3150    1.7290    2.4400 O   0  0  0  0  0
    3.4310    2.2060   -0.9000 O   0  0  0  0  0
   -7.5010   -3.6940    1.3850 O   0  0  0  0  0
   -6.8210   -3.7010   -0.7180 O   0  0  0  0  0
    2.6650    0.5300   -1.8340 H   0  0  0  0  0
    6.9230   -4.3770   -0.1780 H   0  0  0  0  0
    8.6920   -1.0480    1.8170 H   0  0  0  0  0
   -3.8730    2.1890   -1.4220 H   0  0  0  0  0
   -3.3840    1.2240   -0.0080 H   0  0  0  0  0
   -2.2170    0.6990   -2.8390 H   0  0  0  0  0
   -2.4800   -1.5620   -2.1010 H   0  0  0  0  0
   -5.4390   -1.5880   -1.3060 H   0  0  0  0  0
   -4.3510   -2.9510   -0.9490 H   0  0  0  0  0
   -1.7200    4.6550   -0.2240 H   0  0  0  0  0
   -1.4620    2.8750   -1.7170 H   0  0  0  0  0
   -1.0890    0.7980    0.2740 H   0  0  0  0  0
    0.2780    3.3110    1.2300 H   0  0  0  0  0
   -1.7330    4.2650    2.1520 H   0  0  0  0  0
   -2.6410    2.7270    1.9780 H   0  0  0  0  0
    0.3430    1.3270   -1.7430 H   0  0  0  0  0
    0.9140    2.7850   -0.8980 H   0  0  0  0  0
    1.1970   -0.0820    0.1110 H   0  0  0  0  0
    1.7680    1.3770    0.9560 H   0  0  0  0  0
    4.1480    0.3620    0.8270 H   0  0  0  0  0
    3.4120   -1.0270   -0.0090 H   0  0  0  0  0
    5.5790    0.7950   -1.1510 H   0  0  0  0  0
    4.8440   -0.5930   -1.9870 H   0  0  0  0  0
    5.3190   -2.8660   -1.2770 H   0  0  0  0  0
    8.6090   -3.4680    1.3700 H   0  0  0  0  0
    7.0850    0.4620    0.7220 H   0  0  0  0  0
   -2.9790   -1.4760    0.4970 H   0  0  0  0  0
   -4.0680   -0.1140    0.1400 H   0  0  0  0  0
   -4.8960   -2.7550    1.4620 H   0  0  0  0  0
   -5.9850   -1.3930    1.1050 H   0  0  0  0  0
   -4.0010    4.7150    0.5490 H   0  0  0  0  0
   -0.1750    2.1800    3.2840 H   0  0  0  0  0
    3.6420    2.5920   -0.0390 H   0  0  0  0  0
   -8.1990   -4.3160    1.1390 H   0  0  0  0  0
  1 16  1  0  0  0
  1 26  1  0  0  0
  1 29  1  0  0  0
  2 19  1  0  0  0
  2 18  1  0  0  0
  3 19  2  0  0  0
  3 30  1  0  0  0
  4 20  2  0  0  0
  4 21  1  0  0  0
  4 31  1  0  0  0
  5 11  1  0  0  0
  5 32  1  0  0  0
  5 33  1  0  0  0
  6  5  1  0  0  0
  6 34  1  0  0  0
  7  6  2  0  0  0
  7 35  1  0  0  0
  8 22  1  0  0  0
  8 36  1  0  0  0
  8 37  1  0  0  0
  9 27  1  0  0  0
  9 23  1  0  0  0
 10 14  1  0  0  0
 10 38  1  0  0  0
 11 10  1  0  0  0
 11 12  1  0  0  0
 11 39  1  0  0  0
 12 15  1  0  0  0
 12 13  1  0  0  0
 12 40  1  0  0  0
 13 25  1  0  0  0
 13 41  1  0  0  0
 14 13  1  0  0  0
 14 42  1  0  0  0
 14 43  1  0  0  0
 15 16  1  0  0  0
 15 44  1  0  0  0
 15 45  1  0  0  0
 16 46  1  0  0  0
 16 47  1  0  0  0
 17  1  1  0  0  0
 17 48  1  0  0  0
 17 49  1  0  0  0
 18 17  1  0  0  0
 18 50  1  0  0  0
 18 51  1  0  0  0
 19 52  1  0  0  0
 20  3  1  0  0  0
 20 53  1  0  0  0
 21  2  2  0  0  0
 21 54  1  0  0  0
 22  7  1  0  0  0
 22 55  1  0  0  0
 22 56  1  0  0  0
 23  8  1  0  0  0
 23 57  1  0  0  0
 23 58  1  0  0  0
 24 10  1  0  0  0
 24 59  1  0  0  0
 25 60  1  0  0  0
 26 61  1  0  0  0
 27 62  1  0  0  0
 28  9  2  0  0  0
M  END
$$$$
