83J
  CCTOOLS-0919241031

 58 62  0  0  0  0  0  0  0  0999 V2000
    4.2360   -1.0310    0.1880 C   0  0  0  0  0
    5.8390    0.7870    0.5310 C   0  0  0  0  0
    6.9400   -0.1820    0.3440 C   0  0  0  0  0
   -2.8360    0.7800   -0.1570 C   0  0  0  0  0
    8.0830    0.1850   -0.3690 C   0  0  0  0  0
    6.8440   -1.4650    0.8840 C   0  0  0  0  0
   -3.1010    2.1520   -0.1160 C   0  0  0  0  0
    7.8750   -2.3640    0.7060 C   0  0  0  0  0
    9.0030   -1.9960   -0.0060 C   0  0  0  0  0
    2.4550    1.2750   -0.3230 C   0  0  0  0  0
    3.4630    1.2870    0.8430 C   0  0  0  0  0
    3.2350   -1.0420   -0.9730 C   0  0  0  0  0
    0.8570   -0.5470   -0.6650 C   0  0  0  0  0
   -0.2570    0.4320   -0.5080 C   0  0  0  0  0
   -1.6280   -0.0440   -0.3260 C   0  0  0  0  0
   -2.0520   -1.3610   -0.2790 C   0  0  0  0  0
   -3.9030   -0.1220   -0.0200 C   0  0  0  0  0
    9.1070   -0.7240   -0.5390 C   0  0  0  0  0
   -4.4080    2.5700    0.0580 C   0  0  0  0  0
   -2.4550    4.4390   -0.1920 C   0  0  0  0  0
   -5.1900    0.3910    0.1520 C   0  0  0  0  0
   -7.4440   -0.2270    0.9080 C   0  0  0  0  0
   -7.5370   -2.2530    0.1580 C   0  0  0  0  0
   -8.0690   -3.6300   -0.1430 C   0  0  0  0  0
    2.1350   -0.1200   -0.6540 N   0  0  0  0  0
    4.5590    0.3630    0.5210 N   0  0  0  0  0
   -3.3850   -1.3980   -0.0990 N   0  0  0  0  0
   -5.3920    1.6960    0.1850 N   0  0  0  0  0
   -6.2730   -0.4840    0.2920 N   0  0  0  0  0
   -8.1900   -1.2990    0.8210 N   0  0  0  0  0
   -6.3570   -1.8030   -0.1820 N   0  0  0  0  0
    0.6130   -1.7280   -0.8030 O   0  0  0  0  0
    6.0870    1.9650    0.6930 O   0  0  0  0  0
   -0.0260    1.6250   -0.5300 O   0  0  0  0  0
   -2.0950    3.0570   -0.2450 O   0  0  0  0  0
    3.7950   -1.5220    1.0560 H   0  0  0  0  0
    5.1440   -1.5570   -0.1070 H   0  0  0  0  0
    8.1650    1.1780   -0.7860 H   0  0  0  0  0
    5.9640   -1.7540    1.4400 H   0  0  0  0  0
    7.8020   -3.3580    1.1230 H   0  0  0  0  0
    9.8070   -2.7040   -0.1420 H   0  0  0  0  0
    1.5460    1.7990   -0.0270 H   0  0  0  0  0
    2.8940    1.7670   -1.1920 H   0  0  0  0  0
    3.8570    2.2950    0.9760 H   0  0  0  0  0
    2.9680    0.9620    1.7580 H   0  0  0  0  0
    3.7310   -0.7170   -1.8880 H   0  0  0  0  0
    2.8420   -2.0500   -1.1090 H   0  0  0  0  0
   -1.4120   -2.2250   -0.3720 H   0  0  0  0  0
    9.9910   -0.4410   -1.0910 H   0  0  0  0  0
   -4.6280    3.6270    0.0920 H   0  0  0  0  0
   -3.1550    4.6640   -0.9960 H   0  0  0  0  0
   -2.9220    4.6560    0.7690 H   0  0  0  0  0
   -1.5610    5.0520   -0.3070 H   0  0  0  0  0
   -7.7180    0.6990    1.3910 H   0  0  0  0  0
   -8.5910   -3.6170   -1.1000 H   0  0  0  0  0
   -7.2400   -4.3370   -0.1910 H   0  0  0  0  0
   -8.7600   -3.9330    0.6440 H   0  0  0  0  0
   -3.9100   -2.2110   -0.0350 H   0  0  0  0  0
  1 36  1  0  0  0
  1 37  1  0  0  0
  2 26  1  0  0  0
  2  3  1  0  0  0
  3  5  1  0  0  0
  4 17  2  0  0  0
  4  7  1  0  0  0
  5 18  2  0  0  0
  5 38  1  0  0  0
  6  3  2  0  0  0
  6  8  1  0  0  0
  6 39  1  0  0  0
  7 19  2  0  0  0
  8  9  2  0  0  0
  8 40  1  0  0  0
  9 18  1  0  0  0
  9 41  1  0  0  0
 10 25  1  0  0  0
 10 42  1  0  0  0
 10 43  1  0  0  0
 11 10  1  0  0  0
 11 26  1  0  0  0
 11 44  1  0  0  0
 11 45  1  0  0  0
 12  1  1  0  0  0
 12 46  1  0  0  0
 12 47  1  0  0  0
 13 25  1  0  0  0
 13 32  2  0  0  0
 14 13  1  0  0  0
 14 15  1  0  0  0
 15  4  1  0  0  0
 16 15  2  0  0  0
 16 27  1  0  0  0
 16 48  1  0  0  0
 17 21  1  0  0  0
 18 49  1  0  0  0
 19 28  1  0  0  0
 19 50  1  0  0  0
 20 51  1  0  0  0
 20 52  1  0  0  0
 20 53  1  0  0  0
 21 29  1  0  0  0
 21 28  2  0  0  0
 22 30  2  0  0  0
 22 54  1  0  0  0
 23 30  1  0  0  0
 24 23  1  0  0  0
 24 55  1  0  0  0
 24 56  1  0  0  0
 24 57  1  0  0  0
 25 12  1  0  0  0
 26  1  1  0  0  0
 27 17  1  0  0  0
 27 58  1  0  0  0
 29 22  1  0  0  0
 31 29  1  0  0  0
 31 23  2  0  0  0
 33  2  2  0  0  0
 34 14  2  0  0  0
 35  7  1  0  0  0
 35 20  1  0  0  0
M  END
$$$$
