84K
  CCTOOLS-0919241031

 59 61  0  0  0  0  0  0  0  0999 V2000
   -2.6450    0.0260   -0.3380 N   0  0  0  0  0
   -3.2120   -1.2380   -0.1400 C   0  0  0  0  0
   -2.4990   -2.3810   -0.4790 C   0  0  0  0  0
   -3.0610   -3.6270   -0.2820 C   0  0  0  0  0
   -4.3330   -3.7370    0.2500 C   0  0  0  0  0
   -5.0450   -2.6020    0.5870 C   0  0  0  0  0
   -1.2680    0.2860    0.0900 C   0  0  0  0  0
    0.6970   -0.6420    1.3190 C   0  0  0  0  0
    2.9390   -0.3880    0.4420 C   0  0  0  0  0
    5.2350   -0.3770   -0.4950 C   0  0  0  0  0
    7.9180   -0.1820    0.1470 C   0  0  0  0  0
    7.3060   -1.4200    0.1030 C   0  0  0  0  0
    5.9630   -1.5180   -0.2120 C   0  0  0  0  0
   -2.1030    3.0370    2.5560 C   0  0  0  0  0
   -3.4870    3.1080   -2.2300 C   0  0  0  0  0
   -0.3730    0.4520   -1.1410 C   0  0  0  0  0
    1.0740    0.6630   -0.6880 C   0  0  0  0  0
   -0.7610   -0.8920    0.9260 C   0  0  0  0  0
    3.7720   -0.4830   -0.8380 C   0  0  0  0  0
    5.8490    0.8610   -0.4570 C   0  0  0  0  0
    7.1900    0.9590   -0.1360 C   0  0  0  0  0
   -2.7730    2.3790   -1.0900 C   0  0  0  0  0
   -1.2270    1.5460    0.9160 C   0  0  0  0  0
   -3.3640    1.0020   -0.9260 C   0  0  0  0  0
   -4.4860   -1.3530    0.4000 C   0  0  0  0  0
    1.5130   -0.4910    0.1070 N   0  0  0  0  0
   -4.4870    0.7730   -1.3240 O   0  0  0  0  0
   -0.3110    2.3230    0.7870 O   0  0  0  0  0
   -2.2080    1.8050    1.7950 O   0  0  0  0  0
   -1.5060   -2.2950   -0.8950 H   0  0  0  0  0
   -2.5070   -4.5160   -0.5450 H   0  0  0  0  0
   -4.7700   -4.7130    0.4020 H   0  0  0  0  0
   -6.0380   -2.6910    1.0020 H   0  0  0  0  0
    0.7620    0.2680    1.9160 H   0  0  0  0  0
    1.0660   -1.4860    1.9020 H   0  0  0  0  0
    3.2140   -1.2000    1.1150 H   0  0  0  0  0
    3.1300    0.5680    0.9290 H   0  0  0  0  0
    8.9660   -0.1060    0.3930 H   0  0  0  0  0
    7.8770   -2.3120    0.3150 H   0  0  0  0  0
    5.4830   -2.4850   -0.2370 H   0  0  0  0  0
   -2.9580    3.1230    3.2270 H   0  0  0  0  0
   -1.1830    3.0260    3.1400 H   0  0  0  0  0
   -2.0910    3.8860    1.8730 H   0  0  0  0  0
   -4.5490    3.1940   -1.9970 H   0  0  0  0  0
   -3.0600    4.1030   -2.3490 H   0  0  0  0  0
   -3.3630    2.5460   -3.1550 H   0  0  0  0  0
   -0.4340   -0.4440   -1.7580 H   0  0  0  0  0
   -0.7030    1.3160   -1.7180 H   0  0  0  0  0
    1.7170    0.7670   -1.5630 H   0  0  0  0  0
    1.1370    1.5670   -0.0820 H   0  0  0  0  0
   -1.3680   -0.9880    1.8260 H   0  0  0  0  0
   -0.8280   -1.8090    0.3410 H   0  0  0  0  0
    3.5820   -1.4390   -1.3250 H   0  0  0  0  0
    3.4970    0.3290   -1.5120 H   0  0  0  0  0
    5.2800    1.7520   -0.6780 H   0  0  0  0  0
    7.6690    1.9260   -0.1070 H   0  0  0  0  0
   -1.7110    2.2930   -1.3240 H   0  0  0  0  0
   -2.8970    2.9410   -0.1650 H   0  0  0  0  0
   -5.0410   -0.4660    0.6680 H   0  0  0  0  0
  1  2  1  0  0  0
  1  7  1  0  0  0
  2 25  2  0  0  0
  3  4  2  0  0  0
  3  2  1  0  0  0
  3 30  1  0  0  0
  4  5  1  0  0  0
  4 31  1  0  0  0
  5  6  2  0  0  0
  5 32  1  0  0  0
  6 33  1  0  0  0
  7 16  1  0  0  0
  7 18  1  0  0  0
  8 26  1  0  0  0
  8 34  1  0  0  0
  8 35  1  0  0  0
  9 19  1  0  0  0
  9 36  1  0  0  0
  9 37  1  0  0  0
 10 13  1  0  0  0
 11 12  1  0  0  0
 11 38  1  0  0  0
 12 39  1  0  0  0
 13 12  2  0  0  0
 13 40  1  0  0  0
 14 29  1  0  0  0
 14 41  1  0  0  0
 14 42  1  0  0  0
 14 43  1  0  0  0
 15 22  1  0  0  0
 15 44  1  0  0  0
 15 45  1  0  0  0
 15 46  1  0  0  0
 16 17  1  0  0  0
 16 47  1  0  0  0
 16 48  1  0  0  0
 17 26  1  0  0  0
 17 49  1  0  0  0
 17 50  1  0  0  0
 18  8  1  0  0  0
 18 51  1  0  0  0
 18 52  1  0  0  0
 19 10  1  0  0  0
 19 53  1  0  0  0
 19 54  1  0  0  0
 20 10  2  0  0  0
 20 21  1  0  0  0
 20 55  1  0  0  0
 21 11  2  0  0  0
 21 56  1  0  0  0
 22 24  1  0  0  0
 22 57  1  0  0  0
 22 58  1  0  0  0
 23 29  1  0  0  0
 23  7  1  0  0  0
 24  1  1  0  0  0
 25  6  1  0  0  0
 25 59  1  0  0  0
 26  9  1  0  0  0
 27 24  2  0  0  0
 28 23  2  0  0  0
M  END
$$$$
