87Q
  CCTOOLS-0919241032

 62 62  0  0  1  0  0  0  0  0999 V2000
   -1.2370   -1.4190   -0.3380 C   0  0  0  0  0
    2.1080   -1.5840    0.0720 C   0  0  0  0  0
    3.8530   -0.5810   -1.3110 C   0  0  0  0  0
    4.5500    1.6020   -0.3650 C   0  0  0  0  0
    1.4450   -3.9810   -0.3010 C   0  0  0  0  0
    0.4030   -4.6500    0.6180 C   0  0  0  0  0
   -8.3590    2.9260    0.6140 C   0  0  0  0  0
   -7.0870    2.7770   -0.2230 C   0  0  0  0  0
   -6.1110    1.8420    0.4940 C   0  0  0  0  0
   -4.8400    1.6920   -0.3440 C   0  0  0  0  0
   -3.8630    0.7580    0.3730 C   0  0  0  0  0
   -2.5920    0.6080   -0.4640 C   0  0  0  0  0
   -1.9400    1.9800   -0.6510 C   0  0  0  0  0
   -1.6300   -0.3120    0.2420 C   0  0  0  0  0
   -0.2750   -2.3390    0.3680 C   0  0  0  0  0
    1.0140   -2.5120   -0.4600 C   0  0  0  0  0
    3.3200   -1.6730   -0.8190 C   0  0  0  0  0
    3.3640    0.7680   -0.8520 C   0  0  0  0  0
    4.0540    2.9730    0.1000 C   0  0  0  0  0
    5.2230    3.7940    0.5800 C   0  0  0  0  0
   -0.8630   -3.7710    0.4600 C   0  0  0  0  0
   -2.9240    0.0600   -1.7410 O   0  0  0  0  0
    5.0240    5.0400    1.0380 O   0  0  0  0  0
    6.3380    3.3310    0.5520 O   0  0  0  0  0
    2.7410   -4.0490    0.2970 O   0  0  0  0  0
   -1.7130   -3.8980    1.6020 O   0  0  0  0  0
   -1.6050   -1.6730   -1.3210 H   0  0  0  0  0
    1.7400   -0.5580    0.0840 H   0  0  0  0  0
    2.3790   -1.8850    1.0840 H   0  0  0  0  0
    4.6420   -0.6490   -2.0440 H   0  0  0  0  0
    5.0370    1.0910    0.4650 H   0  0  0  0  0
    5.2620    1.7320   -1.1810 H   0  0  0  0  0
    1.4570   -4.4740   -1.2730 H   0  0  0  0  0
    0.2030   -5.6700    0.2890 H   0  0  0  0  0
    0.7470   -4.6450    1.6520 H   0  0  0  0  0
   -9.0540    3.5920    0.1030 H   0  0  0  0  0
   -8.8230    1.9490    0.7480 H   0  0  0  0  0
   -8.1050    3.3440    1.5890 H   0  0  0  0  0
   -7.3410    2.3590   -1.1980 H   0  0  0  0  0
   -6.6230    3.7540   -0.3570 H   0  0  0  0  0
   -5.8580    2.2600    1.4680 H   0  0  0  0  0
   -6.5750    0.8650    0.6270 H   0  0  0  0  0
   -5.0930    1.2750   -1.3180 H   0  0  0  0  0
   -4.3750    2.6700   -0.4770 H   0  0  0  0  0
   -3.6100    1.1760    1.3480 H   0  0  0  0  0
   -4.3280   -0.2190    0.5070 H   0  0  0  0  0
   -1.0340    1.8730   -1.2480 H   0  0  0  0  0
   -2.6360    2.6460   -1.1630 H   0  0  0  0  0
   -1.6870    2.3980    0.3230 H   0  0  0  0  0
   -1.2660   -0.0600    1.2270 H   0  0  0  0  0
   -0.0420   -1.9560    1.3620 H   0  0  0  0  0
    0.8160   -2.2930   -1.5100 H   0  0  0  0  0
    3.7490   -2.6360   -1.0530 H   0  0  0  0  0
    2.8760    1.2800   -1.6820 H   0  0  0  0  0
    2.6520    0.6390   -0.0370 H   0  0  0  0  0
    3.5660    3.4840   -0.7300 H   0  0  0  0  0
    3.3420    2.8430    0.9150 H   0  0  0  0  0
   -1.3990   -4.0270   -0.4530 H   0  0  0  0  0
   -3.3420   -0.8110   -1.6990 H   0  0  0  0  0
    5.8050    5.5280    1.3340 H   0  0  0  0  0
    3.0650   -4.9500    0.4340 H   0  0  0  0  0
   -2.0420   -4.7960    1.7490 H   0  0  0  0  0
  1 15  1  0  0  0
  1 27  1  0  0  0
  2 17  1  0  0  0
  2 28  1  0  0  0
  2 29  1  0  0  0
  3 18  1  0  0  0
  3 30  1  0  0  0
  4 19  1  0  0  0
  4 31  1  0  0  0
  4 32  1  0  0  0
  5 25  1  0  0  0
  5 33  1  0  0  0
  6  5  1  0  0  0
  6 34  1  0  0  0
  6 35  1  0  0  0
  7 36  1  0  0  0
  7 37  1  0  0  0
  7 38  1  0  0  0
  8  7  1  0  0  0
  8 39  1  0  0  0
  8 40  1  0  0  0
  9  8  1  0  0  0
  9 41  1  0  0  0
  9 42  1  0  0  0
 10  9  1  0  0  0
 10 43  1  0  0  0
 10 44  1  0  0  0
 11 10  1  0  0  0
 11 45  1  0  0  0
 11 46  1  0  0  0
 12 14  1  0  0  0
 12 13  1  0  0  0
 12 11  1  0  0  0
 13 47  1  0  0  0
 13 48  1  0  0  0
 13 49  1  0  0  0
 14  1  2  0  0  0
 14 50  1  0  0  0
 15 16  1  0  0  0
 15 51  1  0  0  0
 16  5  1  0  0  0
 16  2  1  0  0  0
 16 52  1  0  0  0
 17  3  2  0  0  0
 17 53  1  0  0  0
 18  4  1  0  0  0
 18 54  1  0  0  0
 18 55  1  0  0  0
 19 20  1  0  0  0
 19 56  1  0  0  0
 19 57  1  0  0  0
 20 23  1  0  0  0
 21  6  1  0  0  0
 21 15  1  0  0  0
 21 58  1  0  0  0
 22 12  1  0  0  0
 22 59  1  0  0  0
 23 60  1  0  0  0
 24 20  2  0  0  0
 25 61  1  0  0  0
 26 21  1  0  0  0
 26 62  1  0  0  0
M  END
$$$$
