8D0
  CCTOOLS-0919241032

 70 72  0  0  1  0  0  0  0  0999 V2000
   -1.4350    1.9890   -0.2990 C   0  0  0  0  0
   -0.3440    1.1870   -0.0290 C   0  0  0  0  0
   -0.5280   -0.1280    0.3520 C   0  0  0  0  0
   -1.8120   -0.6400    0.4670 C   0  0  0  0  0
   -2.9110    0.1640    0.2010 C   0  0  0  0  0
    9.3250   -0.8450    0.8730 N   0  0  0  0  0
   -4.3740   -1.8520   -0.1080 C   0  0  0  0  0
   -5.7980   -2.3660    0.1350 C   0  0  0  0  0
   -6.8050   -1.5120   -0.6340 C   0  0  0  0  0
   -6.6930   -0.0450   -0.2040 C   0  0  0  0  0
   -5.9000   -3.8180   -0.3350 C   0  0  0  0  0
   -5.2570    2.0700    1.4130 C   0  0  0  0  0
   -6.1210    2.7640   -0.8310 C   0  0  0  0  0
    1.0490    1.7470   -0.1500 C   0  0  0  0  0
    2.0680    0.6610    0.2020 C   0  0  0  0  0
    1.2850    2.2220   -1.5860 C   0  0  0  0  0
    1.2100    2.9280    0.8100 C   0  0  0  0  0
    3.4830    1.2300    0.0780 C   0  0  0  0  0
    4.5020    0.1440    0.4300 C   0  0  0  0  0
    5.9170    0.7120    0.3070 C   0  0  0  0  0
    6.9350   -0.3740    0.6590 C   0  0  0  0  0
    8.3500    0.1950    0.5360 C   0  0  0  0  0
   -2.7260    1.4820   -0.1900 C   0  0  0  0  0
   -4.2950   -0.3990    0.3490 C   0  0  0  0  0
   -5.2720    0.4370   -0.4820 C   0  0  0  0  0
   -5.0880    1.9050   -0.0990 C   0  0  0  0  0
   -3.7690    2.3030   -0.4790 O   0  0  0  0  0
   -7.1900   -4.3360   -0.0030 O   0  0  0  0  0
   -1.9950   -1.9340    0.8410 O   0  0  0  0  0
   -1.2850    3.0170   -0.5930 H   0  0  0  0  0
    0.3260   -0.7560    0.5600 H   0  0  0  0  0
   -3.6660   -2.4540    0.4610 H   0  0  0  0  0
   -4.1390   -1.9140   -1.1710 H   0  0  0  0  0
   -6.0220   -2.3160    1.2010 H   0  0  0  0  0
   -6.6050   -1.5920   -1.7030 H   0  0  0  0  0
   -7.8140   -1.8720   -0.4310 H   0  0  0  0  0
   -7.4020    0.5580   -0.7730 H   0  0  0  0  0
   -6.9110    0.0420    0.8600 H   0  0  0  0  0
   -5.7580   -3.8610   -1.4150 H   0  0  0  0  0
   -5.1320   -4.4140    0.1570 H   0  0  0  0  0
   -4.5110    1.4660    1.9300 H   0  0  0  0  0
   -5.1250    3.1180    1.6810 H   0  0  0  0  0
   -6.2550    1.7430    1.7050 H   0  0  0  0  0
   -7.1250    2.4410   -0.5530 H   0  0  0  0  0
   -5.9860    3.8100   -0.5540 H   0  0  0  0  0
   -5.9890    2.6530   -1.9070 H   0  0  0  0  0
    1.9000    0.3230    1.2240 H   0  0  0  0  0
    1.9540   -0.1800   -0.4820 H   0  0  0  0  0
    2.2930    2.6270   -1.6730 H   0  0  0  0  0
    1.1710    1.3810   -2.2700 H   0  0  0  0  0
    0.5600    2.9960   -1.8360 H   0  0  0  0  0
    1.0420    2.5890    1.8320 H   0  0  0  0  0
    2.2180    3.3330    0.7220 H   0  0  0  0  0
    0.4850    3.7010    0.5590 H   0  0  0  0  0
    3.6510    1.5680   -0.9440 H   0  0  0  0  0
    3.5980    2.0700    0.7620 H   0  0  0  0  0
    4.3340   -0.1940    1.4530 H   0  0  0  0  0
    4.3870   -0.6970   -0.2540 H   0  0  0  0  0
    6.0850    1.0500   -0.7150 H   0  0  0  0  0
    6.0310    1.5530    0.9910 H   0  0  0  0  0
    6.7670   -0.7120    1.6810 H   0  0  0  0  0
    6.8210   -1.2150   -0.0250 H   0  0  0  0  0
    8.4650    1.0360    1.2200 H   0  0  0  0  0
    8.5180    0.5330   -0.4870 H   0  0  0  0  0
   -4.5920   -0.3390    1.3960 H   0  0  0  0  0
   -5.0490    0.3090   -1.5410 H   0  0  0  0  0
   -7.3260   -5.2550   -0.2730 H   0  0  0  0  0
   -2.0710   -2.0600    1.7970 H   0  0  0  0  0
   10.1730   -1.2050    0.0270 C   0  0  0  0  0
   11.2270   -1.6510   -1.0230 S   0  0  0  0  0
  1 23  2  0  0  0
  1 30  1  0  0  0
  2  1  1  0  0  0
  3  2  2  0  0  0
  3  4  1  0  0  0
  3 31  1  0  0  0
  4  5  2  0  0  0
  5 23  1  0  0  0
  5 24  1  0  0  0
  6 69  2  0  0  0
  7 24  1  0  0  0
  7  8  1  0  0  0
  7 32  1  0  0  0
  7 33  1  0  0  0
  8  9  1  0  0  0
  8 34  1  0  0  0
  9 10  1  0  0  0
  9 35  1  0  0  0
  9 36  1  0  0  0
 10 37  1  0  0  0
 10 38  1  0  0  0
 11  8  1  0  0  0
 11 39  1  0  0  0
 11 40  1  0  0  0
 12 41  1  0  0  0
 12 42  1  0  0  0
 12 43  1  0  0  0
 13 44  1  0  0  0
 13 45  1  0  0  0
 13 46  1  0  0  0
 14 17  1  0  0  0
 14  2  1  0  0  0
 15 18  1  0  0  0
 15 14  1  0  0  0
 15 47  1  0  0  0
 15 48  1  0  0  0
 16 14  1  0  0  0
 16 49  1  0  0  0
 16 50  1  0  0  0
 16 51  1  0  0  0
 17 52  1  0  0  0
 17 53  1  0  0  0
 17 54  1  0  0  0
 18 55  1  0  0  0
 18 56  1  0  0  0
 19 18  1  0  0  0
 19 57  1  0  0  0
 19 58  1  0  0  0
 20 21  1  0  0  0
 20 19  1  0  0  0
 20 59  1  0  0  0
 20 60  1  0  0  0
 21 22  1  0  0  0
 21 61  1  0  0  0
 21 62  1  0  0  0
 22  6  1  0  0  0
 22 63  1  0  0  0
 22 64  1  0  0  0
 23 27  1  0  0  0
 24 25  1  0  0  0
 24 65  1  0  0  0
 25 26  1  0  0  0
 25 10  1  0  0  0
 25 66  1  0  0  0
 26 12  1  0  0  0
 26 13  1  0  0  0
 27 26  1  0  0  0
 28 11  1  0  0  0
 28 67  1  0  0  0
 29  4  1  0  0  0
 29 68  1  0  0  0
 69 70  2  0  0  0
M  END
$$$$
