9HO
  CCTOOLS-0919241038

 53 52  0  0  1  0  0  0  0  0999 V2000
    8.4490   -1.7500    0.6120 O   0  0  0  0  0
    8.6250   -0.8960   -0.2240 C   0  0  0  0  0
    9.8430   -0.7200   -0.7590 O   0  0  0  0  0
    7.4740   -0.0310   -0.6710 C   0  0  0  0  0
    6.2070   -0.4390    0.0830 C   0  0  0  0  0
    5.0390    0.4390   -0.3700 C   0  0  0  0  0
    3.7710    0.0310    0.3840 C   0  0  0  0  0
    2.6030    0.9090   -0.0700 C   0  0  0  0  0
    1.3360    0.5010    0.6840 C   0  0  0  0  0
    0.1680    1.3790    0.2300 C   0  0  0  0  0
   -1.0990    0.9710    0.9850 C   0  0  0  0  0
   -2.2200    1.9130    0.6290 C   0  0  0  0  0
   -3.3660    1.4340    0.1570 C   0  0  0  0  0
   -4.4610    2.3540   -0.1900 C   0  0  0  0  0
   -5.5710    1.8850   -0.7500 C   0  0  0  0  0
   -5.7670    0.3990   -0.9020 C   0  0  0  0  0
   -7.1000   -0.0070   -0.2700 C   0  0  0  0  0
   -7.2990   -1.5160   -0.4250 C   0  0  0  0  0
   -8.6320   -1.9220    0.2080 C   0  0  0  0  0
   -8.8320   -3.4310    0.0530 C   0  0  0  0  0
   -1.4630   -0.3610    0.6190 O   0  0  0  0  0
   10.5490   -1.3010   -0.4430 H   0  0  0  0  0
    7.7020    1.0140   -0.4610 H   0  0  0  0  0
    7.3170   -0.1610   -1.7420 H   0  0  0  0  0
    5.9790   -1.4840   -0.1270 H   0  0  0  0  0
    6.3640   -0.3090    1.1540 H   0  0  0  0  0
    5.2660    1.4840   -0.1610 H   0  0  0  0  0
    4.8810    0.3090   -1.4410 H   0  0  0  0  0
    3.5440   -1.0140    0.1740 H   0  0  0  0  0
    3.9290    0.1610    1.4550 H   0  0  0  0  0
    2.8310    1.9540    0.1400 H   0  0  0  0  0
    2.4460    0.7790   -1.1410 H   0  0  0  0  0
    1.1080   -0.5440    0.4740 H   0  0  0  0  0
    1.4930    0.6310    1.7550 H   0  0  0  0  0
    0.3950    2.4240    0.4400 H   0  0  0  0  0
    0.0110    1.2490   -0.8400 H   0  0  0  0  0
   -0.9140    1.0160    2.0580 H   0  0  0  0  0
   -2.0930    2.9780    0.7590 H   0  0  0  0  0
   -1.6440   -0.4750   -0.3240 H   0  0  0  0  0
   -3.4940    0.3700    0.0280 H   0  0  0  0  0
   -4.3620    3.4110    0.0110 H   0  0  0  0  0
   -6.3320    2.5690   -1.0950 H   0  0  0  0  0
   -5.7740    0.1400   -1.9610 H   0  0  0  0  0
   -4.9530   -0.1280   -0.4050 H   0  0  0  0  0
   -7.0930    0.2510    0.7890 H   0  0  0  0  0
   -7.9140    0.5200   -0.7670 H   0  0  0  0  0
   -7.3060   -1.7750   -1.4840 H   0  0  0  0  0
   -6.4850   -2.0430    0.0720 H   0  0  0  0  0
   -8.6250   -1.6640    1.2670 H   0  0  0  0  0
   -9.4460   -1.3950   -0.2890 H   0  0  0  0  0
   -9.7810   -3.7200    0.5040 H   0  0  0  0  0
   -8.8390   -3.6900   -1.0060 H   0  0  0  0  0
   -8.0170   -3.9580    0.5500 H   0  0  0  0  0
  1  2  2  0  0  0
  2  3  1  0  0  0
  2  4  1  0  0  0
  3 22  1  0  0  0
  4  5  1  0  0  0
  4 23  1  0  0  0
  4 24  1  0  0  0
  5  6  1  0  0  0
  5 25  1  0  0  0
  5 26  1  0  0  0
  6  7  1  0  0  0
  6 27  1  0  0  0
  6 28  1  0  0  0
  7  8  1  0  0  0
  7 29  1  0  0  0
  7 30  1  0  0  0
  8  9  1  0  0  0
  8 31  1  0  0  0
  8 32  1  0  0  0
  9 10  1  0  0  0
  9 33  1  0  0  0
  9 34  1  0  0  0
 10 11  1  0  0  0
 10 35  1  0  0  0
 10 36  1  0  0  0
 11 12  1  0  0  0
 11 21  1  0  0  0
 11 37  1  0  0  0
 12 13  2  0  0  0
 12 38  1  0  0  0
 13 14  1  0  0  0
 13 40  1  0  0  0
 14 15  2  0  0  0
 14 41  1  0  0  0
 15 16  1  0  0  0
 15 42  1  0  0  0
 16 17  1  0  0  0
 16 43  1  0  0  0
 16 44  1  0  0  0
 17 18  1  0  0  0
 17 45  1  0  0  0
 17 46  1  0  0  0
 18 19  1  0  0  0
 18 47  1  0  0  0
 18 48  1  0  0  0
 19 20  1  0  0  0
 19 49  1  0  0  0
 19 50  1  0  0  0
 20 51  1  0  0  0
 20 52  1  0  0  0
 20 53  1  0  0  0
 21 39  1  0  0  0
M  END
$$$$
