9IG
  CCTOOLS-0919241038

 43 44  0  0  1  0  0  0  0  0999 V2000
   -1.6860   -0.6690   -0.1250 C   0  0  0  0  0
   -2.8980   -0.6840   -1.0600 C   0  0  0  0  0
   -4.1460   -0.3900   -0.2700 C   0  0  0  0  0
   -4.9180   -1.4290    0.2170 C   0  0  0  0  0
   -6.0630   -1.1590    0.9420 C   0  0  0  0  0
   -6.4380    0.1500    1.1810 C   0  0  0  0  0
   -5.6680    1.1890    0.6960 C   0  0  0  0  0
   -4.5180    0.9200   -0.0250 C   0  0  0  0  0
    2.1720   -2.7510   -0.8830 C   0  0  0  0  0
    1.9820   -1.2380   -0.7680 C   0  0  0  0  0
    3.1540   -0.6390   -0.0320 C   0  0  0  0  0
    4.1690   -0.0220   -0.7370 C   0  0  0  0  0
    5.2440    0.5340   -0.0590 C   0  0  0  0  0
    5.2960    0.4690    1.3250 C   0  0  0  0  0
    4.2780   -0.1490    2.0260 C   0  0  0  0  0
    3.2080   -0.7020    1.3480 C   0  0  0  0  0
    7.3200    1.6910    0.0130 C   0  0  0  0  0
   -0.4190   -0.9680   -0.9280 C   0  0  0  0  0
    0.7440   -0.9540   -0.0300 N   0  0  0  0  0
    6.2440    1.1410   -0.7510 O   0  0  0  0  0
   -3.5460    2.2250   -0.6300 CL  0  0  0  0  0
   -1.5990    0.3120    0.3400 H   0  0  0  0  0
   -1.8150   -1.4280    0.6470 H   0  0  0  0  0
   -2.7690    0.0740   -1.8330 H   0  0  0  0  0
   -2.9850   -1.6660   -1.5260 H   0  0  0  0  0
   -4.6250   -2.4520    0.0290 H   0  0  0  0  0
   -6.6650   -1.9710    1.3210 H   0  0  0  0  0
   -7.3330    0.3600    1.7480 H   0  0  0  0  0
   -5.9610    2.2120    0.8830 H   0  0  0  0  0
    1.3250   -3.1840   -1.4150 H   0  0  0  0  0
    3.0910   -2.9620   -1.4300 H   0  0  0  0  0
    2.2360   -3.1870    0.1150 H   0  0  0  0  0
    1.9190   -0.8030   -1.7650 H   0  0  0  0  0
    4.1260    0.0270   -1.8150 H   0  0  0  0  0
    6.1330    0.9000    1.8550 H   0  0  0  0  0
    4.3190   -0.2000    3.1040 H   0  0  0  0  0
    2.4110   -1.1810    1.8970 H   0  0  0  0  0
    8.0480    2.1440   -0.6590 H   0  0  0  0  0
    6.9320    2.4490    0.6930 H   0  0  0  0  0
    7.8000    0.8980    0.5870 H   0  0  0  0  0
   -0.5060   -1.9500   -1.3930 H   0  0  0  0  0
   -0.2910   -0.2100   -1.7000 H   0  0  0  0  0
    0.6200   -1.6040    0.7320 H   0  0  0  0  0
  1  2  1  0  0  0
  1 22  1  0  0  0
  1 23  1  0  0  0
  2  3  1  0  0  0
  2 24  1  0  0  0
  2 25  1  0  0  0
  3  8  2  0  0  0
  4  5  2  0  0  0
  4  3  1  0  0  0
  4 26  1  0  0  0
  5  6  1  0  0  0
  5 27  1  0  0  0
  6  7  2  0  0  0
  6 28  1  0  0  0
  7 29  1  0  0  0
  8  7  1  0  0  0
  8 21  1  0  0  0
  9 30  1  0  0  0
  9 31  1  0  0  0
  9 32  1  0  0  0
 10  9  1  0  0  0
 10 19  1  0  0  0
 10 33  1  0  0  0
 11 16  1  0  0  0
 11 10  1  0  0  0
 12 11  2  0  0  0
 12 34  1  0  0  0
 13 14  2  0  0  0
 13 12  1  0  0  0
 14 15  1  0  0  0
 14 35  1  0  0  0
 15 16  2  0  0  0
 15 36  1  0  0  0
 16 37  1  0  0  0
 17 38  1  0  0  0
 17 39  1  0  0  0
 17 40  1  0  0  0
 18  1  1  0  0  0
 18 41  1  0  0  0
 18 42  1  0  0  0
 19 18  1  0  0  0
 19 43  1  0  0  0
 20 17  1  0  0  0
 20 13  1  0  0  0
M  END
$$$$
