9T4
  CCTOOLS-0919241039

 46 49  0  0  1  0  0  0  0  0999 V2000
   -1.6790    0.2410   -0.1600 C   0  0  0  0  0
   -3.1260   -0.0030   -0.5030 C   0  0  0  0  0
   -3.6140   -1.2600   -0.5800 C   0  0  0  0  0
   -5.0610   -1.5130   -0.9250 C   0  0  0  0  0
   -5.9200   -0.3510   -0.4230 C   0  0  0  0  0
   -0.8610   -1.0020   -0.3510 C   0  0  0  0  0
   -5.4100    0.9430   -1.0660 C   0  0  0  0  0
   -3.9510    1.1100   -0.7390 C   0  0  0  0  0
   -1.4400   -2.2120   -0.4320 C   0  0  0  0  0
   -1.5790    0.6810    1.2780 C   0  0  0  0  0
    0.5480   -0.8990   -0.4490 C   0  0  0  0  0
   -0.5860   -3.4400   -0.6150 C   0  0  0  0  0
   -1.0740    1.8500    1.7110 C   0  0  0  0  0
   -1.1760    1.8440    3.1210 C   0  0  0  0  0
   -1.7380    0.6720    3.4660 C   0  0  0  0  0
    2.5380    0.4000   -0.3500 C   0  0  0  0  0
    3.1650    1.5660   -0.7750 C   0  0  0  0  0
    3.3000   -0.6700    0.0980 C   0  0  0  0  0
    4.6790   -0.5750    0.1170 C   0  0  0  0  0
    4.5440    1.6550   -0.7540 C   0  0  0  0  0
    5.3000    0.5850   -0.3100 C   0  0  0  0  0
   -2.8000   -2.3360   -0.3480 N   0  0  0  0  0
    1.1420    0.3080   -0.3700 N   0  0  0  0  0
   -1.9850   -0.0260    2.3460 O   0  0  0  0  0
   -3.4770    2.2270   -0.6770 O   0  0  0  0  0
    1.2220   -1.9010   -0.6050 O   0  0  0  0  0
    2.2170    2.9100   -1.3310 CL  0  0  0  0  0
    5.6330   -1.9130    0.6780 CL  0  0  0  0  0
   -1.2860    1.0300   -0.8020 H   0  0  0  0  0
   -5.1660   -1.6010   -2.0060 H   0  0  0  0  0
   -5.3900   -2.4380   -0.4520 H   0  0  0  0  0
   -6.9600   -0.5150   -0.7050 H   0  0  0  0  0
   -5.8390   -0.2770    0.6620 H   0  0  0  0  0
   -5.5380    0.8890   -2.1470 H   0  0  0  0  0
   -5.9720    1.7910   -0.6740 H   0  0  0  0  0
   -1.2240   -4.3230   -0.6580 H   0  0  0  0  0
   -0.0210   -3.3540   -1.5430 H   0  0  0  0  0
    0.1040   -3.5300    0.2240 H   0  0  0  0  0
   -0.6670    2.6410    1.0980 H   0  0  0  0  0
   -0.8600    2.6290    3.7920 H   0  0  0  0  0
   -1.9570    0.3490    4.4730 H   0  0  0  0  0
    2.8160   -1.5750    0.4330 H   0  0  0  0  0
    5.0310    2.5600   -1.0830 H   0  0  0  0  0
    6.3780    0.6560   -0.2950 H   0  0  0  0  0
   -3.1910   -3.1950   -0.1230 H   0  0  0  0  0
    0.6020    1.1120   -0.3270 H   0  0  0  0  0
  1  2  1  0  0  0
  1 29  1  0  0  0
  2  8  1  0  0  0
  3  2  2  0  0  0
  3  4  1  0  0  0
  4  5  1  0  0  0
  4 30  1  0  0  0
  4 31  1  0  0  0
  5  7  1  0  0  0
  5 32  1  0  0  0
  5 33  1  0  0  0
  6  1  1  0  0  0
  7 34  1  0  0  0
  7 35  1  0  0  0
  8 25  2  0  0  0
  8  7  1  0  0  0
  9 22  1  0  0  0
  9  6  2  0  0  0
 10  1  1  0  0  0
 11  6  1  0  0  0
 11 26  2  0  0  0
 12  9  1  0  0  0
 12 36  1  0  0  0
 12 37  1  0  0  0
 12 38  1  0  0  0
 13 10  2  0  0  0
 13 39  1  0  0  0
 14 15  2  0  0  0
 14 13  1  0  0  0
 14 40  1  0  0  0
 15 24  1  0  0  0
 15 41  1  0  0  0
 16 23  1  0  0  0
 16 18  2  0  0  0
 17 16  1  0  0  0
 18 42  1  0  0  0
 19 18  1  0  0  0
 19 28  1  0  0  0
 20 17  2  0  0  0
 20 21  1  0  0  0
 20 43  1  0  0  0
 21 19  2  0  0  0
 21 44  1  0  0  0
 22  3  1  0  0  0
 22 45  1  0  0  0
 23 11  1  0  0  0
 23 46  1  0  0  0
 24 10  1  0  0  0
 27 17  1  0  0  0
M  END
$$$$
