9UJ
  CCTOOLS-0919241039

 49 52  0  0  1  0  0  0  0  0999 V2000
   -3.9680    0.6700   -0.4910 C   0  0  0  0  0
   -2.0330   -0.8350   -0.8200 C   0  0  0  0  0
   -4.6020   -0.6540    0.0190 C   0  0  0  0  0
   -1.1180   -1.3020    0.2820 C   0  0  0  0  0
   -1.6770    1.5650   -0.3490 C   0  0  0  0  0
   -4.3290    1.7940    0.4460 C   0  0  0  0  0
   -0.2210    1.3350   -0.2720 C   0  0  0  0  0
   -0.1100   -2.2090    0.0060 C   0  0  0  0  0
   -1.2820   -0.8210    1.5670 C   0  0  0  0  0
    0.3330    0.1750   -0.8190 C   0  0  0  0  0
    0.6050    2.2800    0.3430 C   0  0  0  0  0
    2.5140    0.9030   -0.1270 C   0  0  0  0  0
    0.7290   -2.6380    1.0190 C   0  0  0  0  0
   -0.4430   -1.2500    2.5780 C   0  0  0  0  0
    1.6910   -0.0390   -0.7460 C   0  0  0  0  0
    1.9620    2.0650    0.4140 C   0  0  0  0  0
    3.9760    0.6720   -0.0490 C   0  0  0  0  0
    0.5610   -2.1610    2.3050 C   0  0  0  0  0
    4.6410   -0.3160    0.6230 C   0  0  0  0  0
    5.0190    1.4220   -0.6620 C   0  0  0  0  0
    4.0290   -1.4150    1.4540 C   0  0  0  0  0
    4.8650    2.6370   -1.5390 C   0  0  0  0  0
   -2.5140    0.5270   -0.5420 N   0  0  0  0  0
    6.1330    0.8480   -0.3140 N   0  0  0  0  0
   -3.7020    1.9560    1.4660 O   0  0  0  0  0
   -2.1220    2.6920   -0.2380 O   0  0  0  0  0
   -5.3480    2.6150    0.1470 O   0  0  0  0  0
    5.9450   -0.1120    0.3950 O   0  0  0  0  0
   -3.5470   -1.8710   -0.8750 S   0  0  0  0  0
    0.1000   -2.8080   -1.6090 CL  0  0  0  0  0
   -4.3460    0.8940   -1.4880 H   0  0  0  0  0
   -1.5160   -0.8650   -1.7800 H   0  0  0  0  0
   -4.4960   -0.7540    1.0990 H   0  0  0  0  0
   -5.6460   -0.7350   -0.2830 H   0  0  0  0  0
   -2.0660   -0.1100    1.7820 H   0  0  0  0  0
   -0.3030   -0.5540   -1.2980 H   0  0  0  0  0
    0.1780    3.1800    0.7620 H   0  0  0  0  0
    1.5160   -3.3460    0.8040 H   0  0  0  0  0
   -0.5710   -0.8730    3.5820 H   0  0  0  0  0
    2.1190   -0.9360   -1.1690 H   0  0  0  0  0
    2.6000    2.7950    0.8890 H   0  0  0  0  0
    1.2160   -2.4960    3.0950 H   0  0  0  0  0
    3.8300   -2.2810    0.8220 H   0  0  0  0  0
    4.7190   -1.6960    2.2500 H   0  0  0  0  0
    3.0950   -1.0620    1.8910 H   0  0  0  0  0
    4.8800    3.5350   -0.9220 H   0  0  0  0  0
    5.6850    2.6750   -2.2560 H   0  0  0  0  0
    3.9170    2.5810   -2.0750 H   0  0  0  0  0
   -5.5420    3.3210    0.7790 H   0  0  0  0  0
  1  3  1  0  0  0
  1 23  1  0  0  0
  1 31  1  0  0  0
  2  4  1  0  0  0
  2 32  1  0  0  0
  3 29  1  0  0  0
  3 33  1  0  0  0
  3 34  1  0  0  0
  4  9  1  0  0  0
  5 23  1  0  0  0
  5  7  1  0  0  0
  6 27  1  0  0  0
  6  1  1  0  0  0
  7 11  2  0  0  0
  7 10  1  0  0  0
  8  4  2  0  0  0
  8 13  1  0  0  0
  9 14  2  0  0  0
  9 35  1  0  0  0
 10 15  2  0  0  0
 10 36  1  0  0  0
 11 16  1  0  0  0
 11 37  1  0  0  0
 12 17  1  0  0  0
 13 18  2  0  0  0
 13 38  1  0  0  0
 14 39  1  0  0  0
 15 12  1  0  0  0
 15 40  1  0  0  0
 16 12  2  0  0  0
 16 41  1  0  0  0
 17 20  1  0  0  0
 17 19  2  0  0  0
 18 14  1  0  0  0
 18 42  1  0  0  0
 19 21  1  0  0  0
 19 28  1  0  0  0
 20 24  2  0  0  0
 21 43  1  0  0  0
 21 44  1  0  0  0
 21 45  1  0  0  0
 22 20  1  0  0  0
 22 46  1  0  0  0
 22 47  1  0  0  0
 22 48  1  0  0  0
 23  2  1  0  0  0
 24 28  1  0  0  0
 25  6  2  0  0  0
 26  5  2  0  0  0
 27 49  1  0  0  0
 29  2  1  0  0  0
 30  8  1  0  0  0
M  END
$$$$
