A1ADG
  CCTOOLS-0919241041

 33 35  0  0  0  0  0  0  0  0999 V2000
   -1.7710   -0.0340    2.3010 C   0  0  0  0  0
   -2.4610   -0.1500    0.9660 C   0  0  0  0  0
   -3.8240   -0.3620    0.9080 C   0  0  0  0  0
   -4.4580   -0.4680   -0.3160 C   0  0  0  0  0
   -3.7290   -0.3640   -1.4870 C   0  0  0  0  0
   -2.3650   -0.1520   -1.4360 C   0  0  0  0  0
   -1.7270   -0.0390   -0.2070 C   0  0  0  0  0
    0.1350    1.4550   -0.1320 C   0  0  0  0  0
    2.3480    0.7690   -0.0560 C   0  0  0  0  0
    3.7090    1.0750   -0.0120 C   0  0  0  0  0
    4.6360    0.0580    0.0140 C   0  0  0  0  0
    4.2350   -1.2710   -0.0040 C   0  0  0  0  0
    2.8980   -1.5990   -0.0480 C   0  0  0  0  0
    1.9430   -0.5840   -0.0740 C   0  0  0  0  0
    0.5020   -0.8740   -0.1200 C   0  0  0  0  0
   -0.8540    2.5920   -0.1700 C   0  0  0  0  0
   -0.3450    0.1820   -0.1530 N   0  0  0  0  0
    1.4010    1.7400   -0.0860 N   0  0  0  0  0
    0.0870   -2.0180   -0.1380 O   0  0  0  0  0
   -1.7660    1.0090    2.6180 H   0  0  0  0  0
   -2.3030   -0.6350    3.0380 H   0  0  0  0  0
   -0.7450   -0.3910    2.2120 H   0  0  0  0  0
   -4.3960   -0.4450    1.8210 H   0  0  0  0  0
   -5.5240   -0.6340   -0.3580 H   0  0  0  0  0
   -4.2260   -0.4480   -2.4410 H   0  0  0  0  0
   -1.7960   -0.0710   -2.3500 H   0  0  0  0  0
    4.0340    2.1050    0.0020 H   0  0  0  0  0
    5.6890    0.2970    0.0480 H   0  0  0  0  0
    4.9780   -2.0550    0.0150 H   0  0  0  0  0
    2.5910   -2.6340   -0.0630 H   0  0  0  0  0
   -1.1330    2.8650    0.8480 H   0  0  0  0  0
   -0.4000    3.4510   -0.6650 H   0  0  0  0  0
   -1.7420    2.2830   -0.7200 H   0  0  0  0  0
  1  2  1  0  0  0
  1 20  1  0  0  0
  1 21  1  0  0  0
  1 22  1  0  0  0
  2  7  2  0  0  0
  2  3  1  0  0  0
  3  4  2  0  0  0
  3 23  1  0  0  0
  4  5  1  0  0  0
  4 24  1  0  0  0
  5 25  1  0  0  0
  6  5  2  0  0  0
  6 26  1  0  0  0
  7  6  1  0  0  0
  8 17  1  0  0  0
  9 14  2  0  0  0
 10 11  2  0  0  0
 10  9  1  0  0  0
 10 27  1  0  0  0
 11 12  1  0  0  0
 11 28  1  0  0  0
 12 13  2  0  0  0
 12 29  1  0  0  0
 13 30  1  0  0  0
 14 13  1  0  0  0
 14 15  1  0  0  0
 15 19  2  0  0  0
 16  8  1  0  0  0
 16 31  1  0  0  0
 16 32  1  0  0  0
 16 33  1  0  0  0
 17 15  1  0  0  0
 17  7  1  0  0  0
 18  9  1  0  0  0
 18  8  2  0  0  0
M  END
$$$$
