A1ADN
  CCTOOLS-0919241041

 40 43  0  0  0  0  0  0  0  0999 V2000
   -0.5650    0.8460    0.0560 C   0  0  0  0  0
   -1.3830   -1.3680   -0.0740 C   0  0  0  0  0
   -2.7380   -0.8000   -0.0300 C   0  0  0  0  0
   -3.8740   -1.6070   -0.0720 C   0  0  0  0  0
   -5.1210   -1.0220   -0.0270 C   0  0  0  0  0
   -5.2510    0.3580    0.0580 C   0  0  0  0  0
   -4.1510    1.1670    0.0990 C   0  0  0  0  0
   -2.8720    0.6050    0.0460 C   0  0  0  0  0
    0.9700   -0.9900   -0.0660 C   0  0  0  0  0
    1.4690   -1.7300    0.9980 C   0  0  0  0  0
    3.5590   -1.9630   -0.1470 C   0  0  0  0  0
    1.7730   -0.7400   -1.1710 C   0  0  0  0  0
    2.7620   -2.2140    0.9550 C   0  0  0  0  0
    3.0650   -1.2270   -1.2080 C   0  0  0  0  0
    4.9690   -2.4920   -0.1900 C   0  0  0  0  0
    0.6020    1.7510    0.1030 C   0  0  0  0  0
    0.6000    2.9360   -0.6360 C   0  0  0  0  0
    1.6900    3.7800   -0.5830 C   0  0  0  0  0
    2.7840    3.4540    0.1990 C   0  0  0  0  0
    2.7920    2.2810    0.9330 C   0  0  0  0  0
    1.7090    1.4290    0.8900 C   0  0  0  0  0
   -1.7630    1.3700    0.0910 N   0  0  0  0  0
   -0.3420   -0.5030   -0.0280 N   0  0  0  0  0
   -1.2030   -2.5690   -0.1480 O   0  0  0  0  0
   -3.7780   -2.6800   -0.1380 H   0  0  0  0  0
   -6.0040   -1.6420   -0.0590 H   0  0  0  0  0
   -6.2370    0.7990    0.0920 H   0  0  0  0  0
   -4.2690    2.2390    0.1650 H   0  0  0  0  0
    0.8470   -1.9250    1.8590 H   0  0  0  0  0
    1.3880   -0.1660   -2.0010 H   0  0  0  0  0
    3.1500   -2.7890    1.7820 H   0  0  0  0  0
    3.6900   -1.0330   -2.0670 H   0  0  0  0  0
    4.9720   -3.4840   -0.6420 H   0  0  0  0  0
    5.5910   -1.8210   -0.7830 H   0  0  0  0  0
    5.3660   -2.5530    0.8230 H   0  0  0  0  0
   -0.2530    3.1910   -1.2470 H   0  0  0  0  0
    1.6900    4.6960   -1.1540 H   0  0  0  0  0
    3.6350    4.1180    0.2370 H   0  0  0  0  0
    3.6490    2.0330    1.5420 H   0  0  0  0  0
    1.7140    0.5160    1.4670 H   0  0  0  0  0
  1 23  1  0  0  0
  2 24  2  0  0  0
  3  4  1  0  0  0
  3  2  1  0  0  0
  4 25  1  0  0  0
  5  4  2  0  0  0
  5 26  1  0  0  0
  6  5  1  0  0  0
  6 27  1  0  0  0
  7  6  2  0  0  0
  7  8  1  0  0  0
  7 28  1  0  0  0
  8  3  2  0  0  0
  9 10  1  0  0  0
 10 13  2  0  0  0
 10 29  1  0  0  0
 11 13  1  0  0  0
 11 15  1  0  0  0
 12  9  2  0  0  0
 12 14  1  0  0  0
 12 30  1  0  0  0
 13 31  1  0  0  0
 14 11  2  0  0  0
 14 32  1  0  0  0
 15 33  1  0  0  0
 15 34  1  0  0  0
 15 35  1  0  0  0
 16 21  1  0  0  0
 16  1  1  0  0  0
 17 16  2  0  0  0
 17 36  1  0  0  0
 18 19  2  0  0  0
 18 17  1  0  0  0
 18 37  1  0  0  0
 19 20  1  0  0  0
 19 38  1  0  0  0
 20 21  2  0  0  0
 20 39  1  0  0  0
 21 40  1  0  0  0
 22  8  1  0  0  0
 22  1  2  0  0  0
 23  2  1  0  0  0
 23  9  1  0  0  0
M  END
$$$$
