A1AEI
  CCTOOLS-0919241041

 33 35  0  0  0  0  0  0  0  0999 V2000
   -0.5020   -0.9320    0.5410 C   0  0  0  0  0
    2.5840    0.9070    0.1920 C   0  0  0  0  0
    2.2370    3.2600    0.5220 C   0  0  0  0  0
    0.9760    3.0060    1.0320 C   0  0  0  0  0
    0.5070    1.7090    1.1210 C   0  0  0  0  0
   -2.7380   -3.8550    0.7390 C   0  0  0  0  0
   -2.2270   -2.4560    0.5100 C   0  0  0  0  0
   -3.0800   -1.4630    0.0550 C   0  0  0  0  0
   -2.5720   -0.1870   -0.1330 C   0  0  0  0  0
   -3.4630    0.9240   -0.6260 C   0  0  0  0  0
    1.3040    0.6520    0.7040 C   0  0  0  0  0
    3.4410   -0.2120   -0.2550 C   0  0  0  0  0
    3.0420    2.2200    0.1020 C   0  0  0  0  0
   -4.0470    1.5740    0.4670 F   0  0  0  0  0
   -2.7030    1.8400   -1.3620 F   0  0  0  0  0
   -4.4670    0.3890   -1.4410 F   0  0  0  0  0
   -1.2920    0.0400    0.1120 N   0  0  0  0  0
    0.8320   -0.6570    0.7930 N   0  0  0  0  0
    4.6950   -0.1130   -0.7630 N   0  0  0  0  0
    5.0870   -1.4360   -1.0350 N   0  0  0  0  0
    4.1030   -2.1950   -0.6950 N   0  0  0  0  0
    3.1340   -1.4920   -0.2310 N   0  0  0  0  0
   -0.9580   -2.1600    0.7400 N   0  0  0  0  0
    2.5930    4.2770    0.4510 H   0  0  0  0  0
    0.3530    3.8250    1.3570 H   0  0  0  0  0
   -0.4770    1.5180    1.5210 H   0  0  0  0  0
   -3.0940   -3.9470    1.7650 H   0  0  0  0  0
   -3.5570   -4.0600    0.0500 H   0  0  0  0  0
   -1.9320   -4.5680    0.5690 H   0  0  0  0  0
   -4.1210   -1.6770   -0.1420 H   0  0  0  0  0
    4.0250    2.4240   -0.2950 H   0  0  0  0  0
    1.4390   -1.3760    1.0310 H   0  0  0  0  0
    5.2110    0.6960   -0.9080 H   0  0  0  0  0
  1 23  1  0  0  0
  1 18  1  0  0  0
  2 12  1  0  0  0
  3 13  1  0  0  0
  3 24  1  0  0  0
  4  3  2  0  0  0
  4  5  1  0  0  0
  4 25  1  0  0  0
  5 11  2  0  0  0
  5 26  1  0  0  0
  6 27  1  0  0  0
  6 28  1  0  0  0
  6 29  1  0  0  0
  7 23  2  0  0  0
  7  6  1  0  0  0
  8  7  1  0  0  0
  8 30  1  0  0  0
  9  8  2  0  0  0
  9 17  1  0  0  0
 10 14  1  0  0  0
 10 15  1  0  0  0
 10  9  1  0  0  0
 11  2  1  0  0  0
 11 18  1  0  0  0
 12 22  2  0  0  0
 13  2  2  0  0  0
 13 31  1  0  0  0
 16 10  1  0  0  0
 17  1  2  0  0  0
 18 32  1  0  0  0
 19 12  1  0  0  0
 19 20  1  0  0  0
 19 33  1  0  0  0
 20 21  2  0  0  0
 22 21  1  0  0  0
M  END
$$$$
