A1AE2
  CCTOOLS-0919241041

 93 95  0  0  1  0  0  0  0  0999 V2000
   15.0870    0.2450    1.0530 C   0  0  0  0  0
    4.0210    0.9730   -0.1010 C   0  0  0  0  0
   14.7470   -1.0030    0.5660 C   0  0  0  0  0
   13.4250   -1.3090    0.3080 C   0  0  0  0  0
    8.7720   -0.1620    0.2310 C   0  0  0  0  0
   13.0550   -2.6700   -0.2230 C   0  0  0  0  0
   12.9590   -2.6130   -1.7490 C   0  0  0  0  0
   12.5830   -3.9950   -2.2880 C   0  0  0  0  0
   10.1710    0.3560    0.5690 C   0  0  0  0  0
    7.7530    0.9660    0.4100 C   0  0  0  0  0
    5.4040    1.5280    0.2450 C   0  0  0  0  0
    6.4100    0.4690    0.0840 N   0  0  0  0  0
    1.2520    0.9280   -1.4150 N   0  0  0  0  0
   14.1050    1.1890    1.2890 C   0  0  0  0  0
    0.0100    0.6000   -1.3390 N   0  0  0  0  0
   12.4370   -0.3610    0.5390 C   0  0  0  0  0
    2.9730    2.0760    0.0660 C   0  0  0  0  0
    1.6100    1.5300   -0.2750 C   0  0  0  0  0
    0.5090    1.5520    0.5110 C   0  0  0  0  0
   -1.8540    0.7480    0.2460 C   0  0  0  0  0
   -2.8180    1.3560   -0.7750 C   0  0  0  0  0
   12.7800    0.8860    1.0380 C   0  0  0  0  0
   -4.2590    1.1410   -0.3080 C   0  0  0  0  0
   -5.2220    1.7490   -1.3290 C   0  0  0  0  0
   -6.6410    1.5370   -0.8680 C   0  0  0  0  0
   -7.2570    2.4820   -0.0690 C   0  0  0  0  0
   -8.5580    2.2900    0.3540 C   0  0  0  0  0
   -9.2470    1.1470   -0.0240 C   0  0  0  0  0
   -8.6270    0.1990   -0.8260 C   0  0  0  0  0
   -7.3280    0.3990   -1.2510 C   0  0  0  0  0
  -11.1740   -0.2450   -0.0360 C   0  0  0  0  0
  -12.5970   -0.2840    0.5260 C   0  0  0  0  0
  -13.2480   -1.6230    0.1740 C   0  0  0  0  0
  -15.2710   -2.9360    0.3940 C   0  0  0  0  0
  -14.8960   -3.9810    1.4460 C   0  0  0  0  0
  -16.7880   -2.7390    0.3870 C   0  0  0  0  0
   -0.4750    0.9550   -0.2010 N   0  0  0  0  0
  -14.6130   -1.6610    0.7140 N   0  0  0  0  0
   11.1350   -0.6610    0.2910 O   0  0  0  0  0
    8.4410   -1.2450    1.1020 O   0  0  0  0  0
  -10.5260    0.9550    0.3920 O   0  0  0  0  0
  -13.3630    0.7810   -0.0400 O   0  0  0  0  0
   16.1220    0.4830    1.2530 H   0  0  0  0  0
    4.0180    0.6230   -1.1330 H   0  0  0  0  0
    3.7840    0.1440    0.5650 H   0  0  0  0  0
   15.5160   -1.7400    0.3860 H   0  0  0  0  0
    8.7520   -0.5080   -0.8030 H   0  0  0  0  0
   13.8180   -3.3920    0.0670 H   0  0  0  0  0
   12.0930   -2.9720    0.1910 H   0  0  0  0  0
   12.1960   -1.8900   -2.0380 H   0  0  0  0  0
   13.9210   -2.3110   -2.1630 H   0  0  0  0  0
   13.3460   -4.7180   -1.9980 H   0  0  0  0  0
   11.6210   -4.2970   -1.8740 H   0  0  0  0  0
   12.5150   -3.9550   -3.3750 H   0  0  0  0  0
   10.3880    1.2370   -0.0340 H   0  0  0  0  0
   10.2150    0.6190    1.6260 H   0  0  0  0  0
    7.7730    1.3130    1.4430 H   0  0  0  0  0
    8.0060    1.7920   -0.2550 H   0  0  0  0  0
    5.6400    2.3580   -0.4210 H   0  0  0  0  0
    5.4070    1.8780    1.2770 H   0  0  0  0  0
    6.3830    0.0830   -0.8470 H   0  0  0  0  0
   14.3730    2.1640    1.6690 H   0  0  0  0  0
    2.9760    2.4260    1.0980 H   0  0  0  0  0
    3.2090    2.9060   -0.6000 H   0  0  0  0  0
    0.4310    1.9630    1.5070 H   0  0  0  0  0
   -1.9980    1.2300    1.2130 H   0  0  0  0  0
   -2.0500   -0.3200    0.3390 H   0  0  0  0  0
   -2.6220    2.4250   -0.8680 H   0  0  0  0  0
   -2.6740    0.8750   -1.7420 H   0  0  0  0  0
   12.0130    1.6250    1.2190 H   0  0  0  0  0
   -4.4550    0.0720   -0.2150 H   0  0  0  0  0
   -4.4030    1.6220    0.6600 H   0  0  0  0  0
   -5.0270    2.8170   -1.4220 H   0  0  0  0  0
   -5.0780    1.2680   -2.2960 H   0  0  0  0  0
   -6.7200    3.3720    0.2250 H   0  0  0  0  0
   -9.0380    3.0290    0.9790 H   0  0  0  0  0
   -9.1620   -0.6920   -1.1210 H   0  0  0  0  0
   -6.8470   -0.3360   -1.8790 H   0  0  0  0  0
  -10.6160   -1.1080    0.3270 H   0  0  0  0  0
  -11.2130   -0.2690   -1.1250 H   0  0  0  0  0
  -12.5630   -0.1710    1.6100 H   0  0  0  0  0
  -13.2820   -1.7370   -0.9100 H   0  0  0  0  0
  -12.6630   -2.4360    0.6060 H   0  0  0  0  0
  -14.9440   -3.2760   -0.5890 H   0  0  0  0  0
  -13.8150   -4.1210    1.4510 H   0  0  0  0  0
  -15.2220   -3.6410    2.4290 H   0  0  0  0  0
  -15.3840   -4.9270    1.2090 H   0  0  0  0  0
  -17.1140   -2.3990    1.3700 H   0  0  0  0  0
  -17.0550   -1.9950   -0.3630 H   0  0  0  0  0
  -17.2760   -3.6850    0.1500 H   0  0  0  0  0
  -14.6140   -1.4940    1.7090 H   0  0  0  0  0
    8.4380   -1.0080    2.0400 H   0  0  0  0  0
  -13.4350    0.7440   -1.0030 H   0  0  0  0  0
  1  3  1  0  0  0
  1 43  1  0  0  0
  2 17  1  0  0  0
  2 44  1  0  0  0
  2 45  1  0  0  0
  3  4  2  0  0  0
  3 46  1  0  0  0
  4  6  1  0  0  0
  5 10  1  0  0  0
  5 40  1  0  0  0
  5 47  1  0  0  0
  6  7  1  0  0  0
  6 48  1  0  0  0
  6 49  1  0  0  0
  7  8  1  0  0  0
  7 50  1  0  0  0
  7 51  1  0  0  0
  8 52  1  0  0  0
  8 53  1  0  0  0
  8 54  1  0  0  0
  9  5  1  0  0  0
  9 55  1  0  0  0
  9 56  1  0  0  0
 10 12  1  0  0  0
 10 57  1  0  0  0
 10 58  1  0  0  0
 11  2  1  0  0  0
 11 59  1  0  0  0
 11 60  1  0  0  0
 12 11  1  0  0  0
 12 61  1  0  0  0
 13 15  2  0  0  0
 14  1  2  0  0  0
 14 62  1  0  0  0
 15 37  1  0  0  0
 16 22  2  0  0  0
 16  4  1  0  0  0
 16 39  1  0  0  0
 17 18  1  0  0  0
 17 63  1  0  0  0
 17 64  1  0  0  0
 18 13  1  0  0  0
 18 19  2  0  0  0
 19 65  1  0  0  0
 20 21  1  0  0  0
 20 66  1  0  0  0
 20 67  1  0  0  0
 21 23  1  0  0  0
 21 68  1  0  0  0
 21 69  1  0  0  0
 22 14  1  0  0  0
 22 70  1  0  0  0
 23 24  1  0  0  0
 23 71  1  0  0  0
 23 72  1  0  0  0
 24 25  1  0  0  0
 24 73  1  0  0  0
 24 74  1  0  0  0
 25 26  2  0  0  0
 25 30  1  0  0  0
 26 27  1  0  0  0
 26 75  1  0  0  0
 27 28  2  0  0  0
 27 76  1  0  0  0
 28 29  1  0  0  0
 28 41  1  0  0  0
 29 30  2  0  0  0
 29 77  1  0  0  0
 30 78  1  0  0  0
 31 32  1  0  0  0
 31 79  1  0  0  0
 31 80  1  0  0  0
 32 33  1  0  0  0
 32 42  1  0  0  0
 32 81  1  0  0  0
 33 38  1  0  0  0
 33 82  1  0  0  0
 33 83  1  0  0  0
 34 35  1  0  0  0
 34 36  1  0  0  0
 34 84  1  0  0  0
 35 85  1  0  0  0
 35 86  1  0  0  0
 35 87  1  0  0  0
 36 88  1  0  0  0
 36 89  1  0  0  0
 36 90  1  0  0  0
 37 19  1  0  0  0
 37 20  1  0  0  0
 38 34  1  0  0  0
 38 91  1  0  0  0
 39  9  1  0  0  0
 40 92  1  0  0  0
 41 31  1  0  0  0
 42 93  1  0  0  0
M  END
$$$$
