A1AI1
  CCTOOLS-0919241041

141144  0  0  1  0  0  0  0  0999 V2000
   -7.8890   -4.7170   -0.5300 C   0  0  0  0  0
   -7.6780   -6.2580    1.3620 N   0  0  0  0  0
   -7.5960   -4.5230   -2.0340 C   0  0  0  0  0
   -7.3390   -3.0050   -2.1730 C   0  0  0  0  0
   -5.4140   -0.3480    1.3530 C   0  0  0  0  0
   -3.6640    1.3040    1.0920 C   0  0  0  0  0
   -3.4040    3.4290   -0.2060 C   0  0  0  0  0
   -1.6100    3.7300   -1.7630 C   0  0  0  0  0
    0.1070    1.9480   -2.1350 C   0  0  0  0  0
   -9.3890    1.3200    1.9510 C   0  0  0  0  0
   -7.8460    1.2580    1.8370 C   0  0  0  0  0
   -7.5960    0.5250    0.5050 C   0  0  0  0  0
   -6.7670   -0.7370    0.7530 C   0  0  0  0  0
   -7.5070   -2.4630   -0.7360 C   0  0  0  0  0
   -7.2870   -6.0350   -0.0360 C   0  0  0  0  0
   -4.6120   -1.5930    1.6320 C   0  0  0  0  0
   -2.9370    2.1610    0.0880 C   0  0  0  0  0
   -2.7410    4.2130   -1.1310 C   0  0  0  0  0
   -1.1360    2.4670   -1.4600 C   0  0  0  0  0
    2.5140    1.9500   -1.7520 C   0  0  0  0  0
    3.7230    2.3250   -0.9340 C   0  0  0  0  0
    6.0390    1.5740   -0.8630 C   0  0  0  0  0
    7.2830    1.0540   -1.5370 C   0  0  0  0  0
    8.3860    0.8610   -0.4940 C   0  0  0  0  0
    9.6480    0.3340   -1.1790 C   0  0  0  0  0
   10.7510    0.1400   -0.1360 C   0  0  0  0  0
   12.0140   -0.3870   -0.8210 C   0  0  0  0  0
   13.1160   -0.5800    0.2220 C   0  0  0  0  0
   14.3790   -1.1080   -0.4630 C   0  0  0  0  0
   15.4820   -1.3010    0.5800 C   0  0  0  0  0
   16.7440   -1.8280   -0.1050 C   0  0  0  0  0
   17.8470   -2.0220    0.9380 C   0  0  0  0  0
   19.1100   -2.5490    0.2540 C   0  0  0  0  0
   20.2120   -2.7420    1.2960 C   0  0  0  0  0
   21.4750   -3.2700    0.6120 C   0  0  0  0  0
   22.5780   -3.4630    1.6540 C   0  0  0  0  0
   23.8400   -3.9900    0.9700 C   0  0  0  0  0
    3.8060    3.8480   -0.8140 C   0  0  0  0  0
    4.9590    4.2250    0.1180 C   0  0  0  0  0
    5.0420    5.7480    0.2370 C   0  0  0  0  0
    6.1950    6.1240    1.1690 C   0  0  0  0  0
   -1.8030    1.6810   -0.5390 C   0  0  0  0  0
   -9.8330    1.1250    0.4790 C   0  0  0  0  0
  -11.4450   -0.6460    0.8960 C   0  0  0  0  0
  -13.7010   -0.4560    0.3190 C   0  0  0  0  0
  -13.4520    0.8440   -0.1830 C   0  0  0  0  0
  -12.1980    1.3410   -0.1260 C   0  0  0  0  0
   -4.6830    0.5020    0.4030 N   0  0  0  0  0
    1.2830    2.3120   -1.3390 N   0  0  0  0  0
    4.9320    1.8200   -1.5890 N   0  0  0  0  0
    6.2740    7.5870    1.2840 N   0  0  0  0  0
  -11.1940    0.5860    0.4170 N   0  0  0  0  0
  -12.6850   -1.1680    0.8480 N   0  0  0  0  0
   -9.8130    2.5910    2.4480 O   0  0  0  0  0
   -7.2940    2.5750    1.7940 O   0  0  0  0  0
   -6.5600   -1.4230   -0.4830 O   0  0  0  0  0
   -7.2480   -3.5970    0.1190 O   0  0  0  0  0
   -8.7250   -4.9130   -2.8180 O   0  0  0  0  0
   -8.3010   -2.4130   -3.0470 O   0  0  0  0  0
   -5.0860   -2.5220    2.4780 O   0  0  0  0  0
   -3.5420   -1.7560    1.0950 O   0  0  0  0  0
    6.0360    1.7700    0.3340 O   0  0  0  0  0
    2.6490    1.3230   -2.7810 O   0  0  0  0  0
   -8.8800    0.1700   -0.0360 O   0  0  0  0  0
  -14.8240   -0.9250    0.2790 O   0  0  0  0  0
  -10.5380   -1.2990    1.3750 O   0  0  0  0  0
   -8.9630   -4.6980   -0.3470 H   0  0  0  0  0
   -7.2930   -7.1220    1.7120 H   0  0  0  0  0
   -7.4050   -5.4790    1.9430 H   0  0  0  0  0
   -6.7120   -5.0880   -2.3270 H   0  0  0  0  0
   -6.3270   -2.8210   -2.5350 H   0  0  0  0  0
   -5.5720    0.1980    2.2830 H   0  0  0  0  0
   -2.9530    0.6420    1.5860 H   0  0  0  0  0
   -4.1430    1.9420    1.8340 H   0  0  0  0  0
   -4.2900    3.8050    0.2840 H   0  0  0  0  0
   -1.0890    4.3440   -2.4820 H   0  0  0  0  0
    0.0480    0.8630   -2.2200 H   0  0  0  0  0
    0.1910    2.3860   -3.1290 H   0  0  0  0  0
   -9.7650    0.5130    2.5810 H   0  0  0  0  0
   -7.4240    0.6950    2.6700 H   0  0  0  0  0
   -7.0710    1.1830   -0.1870 H   0  0  0  0  0
   -7.2970   -1.3900    1.4470 H   0  0  0  0  0
   -8.5220   -2.0960   -0.5860 H   0  0  0  0  0
   -7.6550   -6.8550   -0.6510 H   0  0  0  0  0
   -6.2010   -5.9860   -0.1060 H   0  0  0  0  0
   -3.1060    5.2030   -1.3610 H   0  0  0  0  0
    3.6390    1.8870    0.0610 H   0  0  0  0  0
    7.0650    0.1000   -2.0160 H   0  0  0  0  0
    7.6150    1.7710   -2.2880 H   0  0  0  0  0
    8.6040    1.8150   -0.0150 H   0  0  0  0  0
    8.0540    0.1450    0.2570 H   0  0  0  0  0
    9.4300   -0.6210   -1.6580 H   0  0  0  0  0
    9.9800    1.0500   -1.9300 H   0  0  0  0  0
   10.9690    1.0950    0.3430 H   0  0  0  0  0
   10.4190   -0.5760    0.6150 H   0  0  0  0  0
   11.7950   -1.3410   -1.3000 H   0  0  0  0  0
   12.3460    0.3290   -1.5720 H   0  0  0  0  0
   13.3350    0.3740    0.7010 H   0  0  0  0  0
   12.7840   -1.2970    0.9740 H   0  0  0  0  0
   14.1610   -2.0620   -0.9420 H   0  0  0  0  0
   14.7110   -0.3910   -1.2140 H   0  0  0  0  0
   15.7000   -0.3470    1.0590 H   0  0  0  0  0
   15.1500   -2.0170    1.3320 H   0  0  0  0  0
   16.5260   -2.7830   -0.5840 H   0  0  0  0  0
   17.0760   -1.1120   -0.8560 H   0  0  0  0  0
   18.0650   -1.0670    1.4180 H   0  0  0  0  0
   17.5150   -2.7380    1.6900 H   0  0  0  0  0
   18.8910   -3.5030   -0.2260 H   0  0  0  0  0
   19.4420   -1.8330   -0.4980 H   0  0  0  0  0
   20.4310   -1.7880    1.7760 H   0  0  0  0  0
   19.8800   -3.4590    2.0480 H   0  0  0  0  0
   21.2570   -4.2240    0.1320 H   0  0  0  0  0
   21.8070   -2.5530   -0.1400 H   0  0  0  0  0
   22.7960   -2.5090    2.1340 H   0  0  0  0  0
   22.2460   -4.1800    2.4060 H   0  0  0  0  0
   24.1720   -3.2740    0.2180 H   0  0  0  0  0
   24.6260   -4.1280    1.7130 H   0  0  0  0  0
   23.6220   -4.9450    0.4910 H   0  0  0  0  0
    3.9790    4.2810   -1.8000 H   0  0  0  0  0
    2.8700    4.2320   -0.4080 H   0  0  0  0  0
    4.7860    3.7920    1.1030 H   0  0  0  0  0
    5.8940    3.8410   -0.2890 H   0  0  0  0  0
    5.2150    6.1810   -0.7480 H   0  0  0  0  0
    4.1060    6.1320    0.6430 H   0  0  0  0  0
    6.0220    5.6920    2.1550 H   0  0  0  0  0
    7.1310    5.7400    0.7630 H   0  0  0  0  0
   -1.4370    0.6910   -0.3090 H   0  0  0  0  0
   -9.7680    2.0650   -0.0690 H   0  0  0  0  0
  -14.2530    1.4290   -0.6090 H   0  0  0  0  0
  -11.9880    2.3300   -0.5040 H   0  0  0  0  0
   -5.3170    1.0910   -0.1160 H   0  0  0  0  0
    1.1750    2.8140   -0.5160 H   0  0  0  0  0
    4.9350    1.6630   -2.5470 H   0  0  0  0  0
    5.3970    7.9730    1.5970 H   0  0  0  0  0
    7.0290    7.8610    1.8950 H   0  0  0  0  0
  -12.8470   -2.0590    1.1930 H   0  0  0  0  0
  -10.7730    2.6950    2.4950 H   0  0  0  0  0
   -7.4730    3.1020    2.5850 H   0  0  0  0  0
   -8.5950   -4.8110   -3.7710 H   0  0  0  0  0
   -8.1860   -1.4600   -3.1710 H   0  0  0  0  0
   -4.5360   -3.3030    2.6250 H   0  0  0  0  0
  1  3  1  0  0  0
  1 57  1  0  0  0
  1 67  1  0  0  0
  2 15  1  0  0  0
  2 68  1  0  0  0
  2 69  1  0  0  0
  3  4  1  0  0  0
  3 70  1  0  0  0
  4 14  1  0  0  0
  4 71  1  0  0  0
  5 13  1  0  0  0
  5 16  1  0  0  0
  5 72  1  0  0  0
  6 48  1  0  0  0
  6 73  1  0  0  0
  6 74  1  0  0  0
  7 17  1  0  0  0
  7 75  1  0  0  0
  8 19  2  0  0  0
  8 76  1  0  0  0
  9 77  1  0  0  0
  9 78  1  0  0  0
 10 54  1  0  0  0
 10 79  1  0  0  0
 11 10  1  0  0  0
 11 55  1  0  0  0
 11 80  1  0  0  0
 12 11  1  0  0  0
 12 81  1  0  0  0
 13 12  1  0  0  0
 13 82  1  0  0  0
 14 56  1  0  0  0
 14 83  1  0  0  0
 15  1  1  0  0  0
 15 84  1  0  0  0
 15 85  1  0  0  0
 16 61  2  0  0  0
 16 60  1  0  0  0
 17  6  1  0  0  0
 17 42  2  0  0  0
 18  7  2  0  0  0
 18  8  1  0  0  0
 18 86  1  0  0  0
 19 42  1  0  0  0
 19  9  1  0  0  0
 20 63  2  0  0  0
 21 20  1  0  0  0
 21 38  1  0  0  0
 21 87  1  0  0  0
 22 50  1  0  0  0
 23 22  1  0  0  0
 23 88  1  0  0  0
 23 89  1  0  0  0
 24 23  1  0  0  0
 24 90  1  0  0  0
 24 91  1  0  0  0
 25 24  1  0  0  0
 25 92  1  0  0  0
 25 93  1  0  0  0
 26 25  1  0  0  0
 26 94  1  0  0  0
 26 95  1  0  0  0
 27 26  1  0  0  0
 27 96  1  0  0  0
 27 97  1  0  0  0
 28 27  1  0  0  0
 28 98  1  0  0  0
 28 99  1  0  0  0
 29 28  1  0  0  0
 29100  1  0  0  0
 29101  1  0  0  0
 30 29  1  0  0  0
 30102  1  0  0  0
 30103  1  0  0  0
 31 30  1  0  0  0
 31104  1  0  0  0
 31105  1  0  0  0
 32 31  1  0  0  0
 32106  1  0  0  0
 32107  1  0  0  0
 33 32  1  0  0  0
 33108  1  0  0  0
 33109  1  0  0  0
 34 33  1  0  0  0
 34110  1  0  0  0
 34111  1  0  0  0
 35 34  1  0  0  0
 35112  1  0  0  0
 35113  1  0  0  0
 36 35  1  0  0  0
 36114  1  0  0  0
 36115  1  0  0  0
 37 36  1  0  0  0
 37116  1  0  0  0
 37117  1  0  0  0
 37118  1  0  0  0
 38 39  1  0  0  0
 38119  1  0  0  0
 38120  1  0  0  0
 39 40  1  0  0  0
 39121  1  0  0  0
 39122  1  0  0  0
 40 41  1  0  0  0
 40123  1  0  0  0
 40124  1  0  0  0
 41 51  1  0  0  0
 41125  1  0  0  0
 41126  1  0  0  0
 42127  1  0  0  0
 43 10  1  0  0  0
 43128  1  0  0  0
 44 66  2  0  0  0
 45 46  1  0  0  0
 45 53  1  0  0  0
 46 47  2  0  0  0
 46129  1  0  0  0
 47 52  1  0  0  0
 47130  1  0  0  0
 48  5  1  0  0  0
 48131  1  0  0  0
 49 20  1  0  0  0
 49  9  1  0  0  0
 49132  1  0  0  0
 50 21  1  0  0  0
 50133  1  0  0  0
 51134  1  0  0  0
 51135  1  0  0  0
 52 44  1  0  0  0
 52 43  1  0  0  0
 53 44  1  0  0  0
 53136  1  0  0  0
 54137  1  0  0  0
 55138  1  0  0  0
 56 13  1  0  0  0
 57 14  1  0  0  0
 58  3  1  0  0  0
 58139  1  0  0  0
 59  4  1  0  0  0
 59140  1  0  0  0
 60141  1  0  0  0
 62 22  2  0  0  0
 64 43  1  0  0  0
 64 12  1  0  0  0
 65 45  2  0  0  0
M  END
$$$$
