A1AI2
  CCTOOLS-0919241041

143146  0  0  1  0  0  0  0  0999 V2000
   -7.8120    1.8710    2.9200 C   0  0  0  0  0
   -7.3770    0.4160    2.6190 C   0  0  0  0  0
   -6.6910    0.5050    1.2420 C   0  0  0  0  0
   -7.4030   -0.4120    0.2450 C   0  0  0  0  0
   -7.4640    0.6420   -1.9070 C   0  0  0  0  0
   -8.9830    0.7810   -3.6490 C   0  0  0  0  0
   -9.6020   -0.1600   -4.6850 C   0  0  0  0  0
   -7.6680    1.3700   -4.1940 C   0  0  0  0  0
   -6.6000    0.9370   -3.1600 C   0  0  0  0  0
   -7.2890   -1.8630    0.7160 C   0  0  0  0  0
   -7.8830   -2.7770   -0.3250 C   0  0  0  0  0
   -5.7280   -3.2980    1.8850 C   0  0  0  0  0
   -4.2660   -3.6180    2.0640 C   0  0  0  0  0
   -3.6600   -4.5580    1.2520 C   0  0  0  0  0
   -2.3190   -4.8520    1.4160 C   0  0  0  0  0
   -1.5850   -4.2060    2.3930 C   0  0  0  0  0
   -0.1230   -4.5260    2.5730 C   0  0  0  0  0
    2.0220   -3.7420    1.7240 C   0  0  0  0  0
    2.8470   -2.8280    0.8550 C   0  0  0  0  0
    2.4570   -3.0290   -0.6110 C   0  0  0  0  0
    3.2030   -2.0160   -1.4810 C   0  0  0  0  0
    2.8130   -2.2170   -2.9460 C   0  0  0  0  0
    3.3360   -1.2360   -5.1410 C   0  0  0  0  0
    5.1990   -2.1960    0.7870 C   0  0  0  0  0
    6.6610   -2.5160    0.9660 C   0  0  0  0  0
    7.4990   -1.2820    0.6270 C   0  0  0  0  0
    8.9830   -1.6070    0.8100 C   0  0  0  0  0
    9.8210   -0.3720    0.4710 C   0  0  0  0  0
   11.3050   -0.6970    0.6530 C   0  0  0  0  0
   12.1420    0.5370    0.3150 C   0  0  0  0  0
   13.6260    0.2120    0.4970 C   0  0  0  0  0
   14.4640    1.4470    0.1580 C   0  0  0  0  0
   15.9480    1.1220    0.3400 C   0  0  0  0  0
   16.7860    2.3560    0.0020 C   0  0  0  0  0
   18.2700    2.0310    0.1840 C   0  0  0  0  0
   19.1080    3.2660   -0.1550 C   0  0  0  0  0
   20.5920    2.9410    0.0270 C   0  0  0  0  0
   21.4300    4.1750   -0.3110 C   0  0  0  0  0
   22.9140    3.8500   -0.1290 C   0  0  0  0  0
   -2.1910   -3.2650    3.2050 C   0  0  0  0  0
   -3.5310   -2.9680    3.0380 C   0  0  0  0  0
   -6.8790    2.6880    1.9900 C   0  0  0  0  0
   -6.8790    5.1160    2.1030 C   0  0  0  0  0
   -8.5450    6.4230    1.1150 C   0  0  0  0  0
   -9.1820    5.2440    0.6580 C   0  0  0  0  0
   -8.6330    4.0450    0.9480 C   0  0  0  0  0
  -10.9080   -0.6280   -4.2030 N   0  0  0  0  0
   -5.8740   -2.2030    0.9160 N   0  0  0  0  0
    0.6790   -3.6370    1.7280 N   0  0  0  0  0
    3.5280   -1.2460   -3.7790 N   0  0  0  0  0
    2.4740   -2.1360   -5.7200 N   0  0  0  0  0
    3.9720   -0.3730   -5.8820 N   0  0  0  0  0
    4.2680   -3.1390    1.0300 N   0  0  0  0  0
   -7.4750    3.9890    1.6750 N   0  0  0  0  0
   -7.4050    6.3240    1.8280 N   0  0  0  0  0
   -7.5800    2.1990    4.2920 O   0  0  0  0  0
   -6.4560   -0.0460    3.6080 O   0  0  0  0  0
   -6.7960   -0.2790   -1.0420 O   0  0  0  0  0
   -8.6610    0.0490   -2.4540 O   0  0  0  0  0
   -7.7480    2.7950   -4.2640 O   0  0  0  0  0
   -5.6770    1.9970   -2.9050 O   0  0  0  0  0
   -9.1730   -2.6490   -0.6730 O   0  0  0  0  0
   -7.1970   -3.6250   -0.8470 O   0  0  0  0  0
    4.8610   -1.0890    0.4240 O   0  0  0  0  0
    2.5680   -4.5720    2.4210 O   0  0  0  0  0
   -6.7860    1.8700    0.8040 O   0  0  0  0  0
   -9.0210    7.5150    0.8650 O   0  0  0  0  0
   -5.8530    5.0430    2.7510 O   0  0  0  0  0
   -8.8580    2.0270    2.6560 H   0  0  0  0  0
   -8.2460   -0.2400    2.5700 H   0  0  0  0  0
   -5.6430    0.2160    1.3310 H   0  0  0  0  0
   -8.4550   -0.1320    0.1820 H   0  0  0  0  0
   -7.7000    1.5650   -1.3780 H   0  0  0  0  0
   -9.6810    1.5850   -3.4160 H   0  0  0  0  0
   -9.7310    0.3720   -5.6270 H   0  0  0  0  0
   -8.9430   -1.0150   -4.8380 H   0  0  0  0  0
   -7.4420    0.9530   -5.1760 H   0  0  0  0  0
   -6.0780    0.0400   -3.4930 H   0  0  0  0  0
   -7.8280   -1.9840    1.6550 H   0  0  0  0  0
   -6.2510   -4.1810    1.5170 H   0  0  0  0  0
   -6.1540   -2.9960    2.8420 H   0  0  0  0  0
   -4.2340   -5.0630    0.4890 H   0  0  0  0  0
   -1.8450   -5.5860    0.7820 H   0  0  0  0  0
    0.1550   -4.3830    3.6170 H   0  0  0  0  0
    0.0600   -5.5620    2.2870 H   0  0  0  0  0
    2.6640   -1.7920    1.1410 H   0  0  0  0  0
    2.7220   -4.0400   -0.9220 H   0  0  0  0  0
    1.3830   -2.8840   -0.7240 H   0  0  0  0  0
    2.9380   -1.0050   -1.1700 H   0  0  0  0  0
    4.2780   -2.1610   -1.3670 H   0  0  0  0  0
    3.0780   -3.2270   -3.2570 H   0  0  0  0  0
    1.7390   -2.0720   -3.0600 H   0  0  0  0  0
    6.8450   -2.8080    2.0000 H   0  0  0  0  0
    6.9380   -3.3360    0.3030 H   0  0  0  0  0
    7.3150   -0.9900   -0.4070 H   0  0  0  0  0
    7.2220   -0.4620    1.2910 H   0  0  0  0  0
    9.1670   -1.8980    1.8440 H   0  0  0  0  0
    9.2590   -2.4260    0.1470 H   0  0  0  0  0
    9.6370   -0.0810   -0.5630 H   0  0  0  0  0
    9.5440    0.4480    1.1340 H   0  0  0  0  0
   11.4880   -0.9890    1.6870 H   0  0  0  0  0
   11.5810   -1.5170   -0.0100 H   0  0  0  0  0
   11.9590    0.8290   -0.7200 H   0  0  0  0  0
   11.8660    1.3570    0.9780 H   0  0  0  0  0
   13.8100   -0.0790    1.5310 H   0  0  0  0  0
   13.9030   -0.6080   -0.1670 H   0  0  0  0  0
   14.2810    1.7380   -0.8760 H   0  0  0  0  0
   14.1880    2.2670    0.8210 H   0  0  0  0  0
   16.1320    0.8300    1.3740 H   0  0  0  0  0
   16.2250    0.3020   -0.3230 H   0  0  0  0  0
   16.6020    2.6480   -1.0330 H   0  0  0  0  0
   16.5100    3.1760    0.6650 H   0  0  0  0  0
   18.4540    1.7400    1.2180 H   0  0  0  0  0
   18.5460    1.2120   -0.4790 H   0  0  0  0  0
   18.9240    3.5570   -1.1890 H   0  0  0  0  0
   18.8310    4.0860    0.5080 H   0  0  0  0  0
   20.7760    2.6490    1.0610 H   0  0  0  0  0
   20.8680    2.1210   -0.6360 H   0  0  0  0  0
   21.2460    4.4670   -1.3450 H   0  0  0  0  0
   21.1530    4.9950    0.3520 H   0  0  0  0  0
   23.0970    3.5590    0.9050 H   0  0  0  0  0
   23.1900    3.0300   -0.7920 H   0  0  0  0  0
   23.5100    4.7300   -0.3700 H   0  0  0  0  0
   -1.6170   -2.7600    3.9680 H   0  0  0  0  0
   -4.0040   -2.2310    3.6690 H   0  0  0  0  0
   -5.8980    2.8150    2.4470 H   0  0  0  0  0
  -10.0960    5.3030    0.0860 H   0  0  0  0  0
   -9.1060    3.1350    0.6090 H   0  0  0  0  0
  -11.5160    0.1500   -3.9920 H   0  0  0  0  0
  -11.3370   -1.2510   -4.8700 H   0  0  0  0  0
   -5.4300   -2.4340    0.0400 H   0  0  0  0  0
    0.2430   -2.9740    1.1700 H   0  0  0  0  0
    4.1360   -0.6110   -3.3710 H   0  0  0  0  0
    2.0000   -2.7790   -5.1690 H   0  0  0  0  0
    2.3380   -2.1290   -6.6810 H   0  0  0  0  0
    3.8360   -0.3650   -6.8420 H   0  0  0  0  0
    4.5390   -4.0250    1.3200 H   0  0  0  0  0
   -6.9620    7.1270    2.1440 H   0  0  0  0  0
   -7.8360    3.1000    4.5290 H   0  0  0  0  0
   -6.8180   -0.0660    4.5040 H   0  0  0  0  0
   -6.9470    3.2180   -4.6010 H   0  0  0  0  0
   -5.0440    1.8070   -2.2000 H   0  0  0  0  0
   -9.5080   -3.2580   -1.3460 H   0  0  0  0  0
  1  2  1  0  0  0
  1 42  1  0  0  0
  1 69  1  0  0  0
  2  3  1  0  0  0
  2 70  1  0  0  0
  3 66  1  0  0  0
  3  4  1  0  0  0
  3 71  1  0  0  0
  4 10  1  0  0  0
  4 58  1  0  0  0
  4 72  1  0  0  0
  5  9  1  0  0  0
  5 59  1  0  0  0
  5 73  1  0  0  0
  6  7  1  0  0  0
  6 74  1  0  0  0
  7 75  1  0  0  0
  7 76  1  0  0  0
  8  6  1  0  0  0
  8 60  1  0  0  0
  8 77  1  0  0  0
  9  8  1  0  0  0
  9 78  1  0  0  0
 10 48  1  0  0  0
 10 79  1  0  0  0
 11 10  1  0  0  0
 12 13  1  0  0  0
 12 80  1  0  0  0
 12 81  1  0  0  0
 13 41  1  0  0  0
 14 13  2  0  0  0
 14 15  1  0  0  0
 14 82  1  0  0  0
 15 16  2  0  0  0
 15 83  1  0  0  0
 16 40  1  0  0  0
 16 17  1  0  0  0
 17 84  1  0  0  0
 17 85  1  0  0  0
 18 49  1  0  0  0
 18 19  1  0  0  0
 19 20  1  0  0  0
 19 86  1  0  0  0
 20 87  1  0  0  0
 20 88  1  0  0  0
 21 20  1  0  0  0
 21 89  1  0  0  0
 21 90  1  0  0  0
 22 21  1  0  0  0
 22 91  1  0  0  0
 22 92  1  0  0  0
 23 50  1  0  0  0
 23 51  1  0  0  0
 24 25  1  0  0  0
 25 26  1  0  0  0
 25 93  1  0  0  0
 25 94  1  0  0  0
 26 27  1  0  0  0
 26 95  1  0  0  0
 26 96  1  0  0  0
 27 28  1  0  0  0
 27 97  1  0  0  0
 27 98  1  0  0  0
 28 29  1  0  0  0
 28 99  1  0  0  0
 28100  1  0  0  0
 29 30  1  0  0  0
 29101  1  0  0  0
 29102  1  0  0  0
 30 31  1  0  0  0
 30103  1  0  0  0
 30104  1  0  0  0
 31 32  1  0  0  0
 31105  1  0  0  0
 31106  1  0  0  0
 32107  1  0  0  0
 32108  1  0  0  0
 33 32  1  0  0  0
 33 34  1  0  0  0
 33109  1  0  0  0
 33110  1  0  0  0
 34111  1  0  0  0
 34112  1  0  0  0
 35 34  1  0  0  0
 35 36  1  0  0  0
 35113  1  0  0  0
 35114  1  0  0  0
 36115  1  0  0  0
 36116  1  0  0  0
 37 36  1  0  0  0
 37 38  1  0  0  0
 37117  1  0  0  0
 37118  1  0  0  0
 38 39  1  0  0  0
 38119  1  0  0  0
 38120  1  0  0  0
 39121  1  0  0  0
 39122  1  0  0  0
 39123  1  0  0  0
 40124  1  0  0  0
 41 40  2  0  0  0
 41125  1  0  0  0
 42 66  1  0  0  0
 42 54  1  0  0  0
 42126  1  0  0  0
 43 54  1  0  0  0
 43 55  1  0  0  0
 44 67  2  0  0  0
 45 44  1  0  0  0
 45127  1  0  0  0
 46 45  2  0  0  0
 46128  1  0  0  0
 47  7  1  0  0  0
 47129  1  0  0  0
 47130  1  0  0  0
 48 12  1  0  0  0
 48131  1  0  0  0
 49 17  1  0  0  0
 49132  1  0  0  0
 50 22  1  0  0  0
 50133  1  0  0  0
 51134  1  0  0  0
 51135  1  0  0  0
 52 23  2  0  0  0
 52136  1  0  0  0
 53 19  1  0  0  0
 53 24  1  0  0  0
 53137  1  0  0  0
 54 46  1  0  0  0
 55 44  1  0  0  0
 55138  1  0  0  0
 56  1  1  0  0  0
 56139  1  0  0  0
 57  2  1  0  0  0
 57140  1  0  0  0
 58  5  1  0  0  0
 59  6  1  0  0  0
 60141  1  0  0  0
 61  9  1  0  0  0
 61142  1  0  0  0
 62 11  1  0  0  0
 62143  1  0  0  0
 63 11  2  0  0  0
 64 24  2  0  0  0
 65 18  2  0  0  0
 68 43  2  0  0  0
M  END
$$$$
