A1APP
  CCTOOLS-0919241042

 42 44  0  0  1  0  0  0  0  0999 V2000
    4.8140   -0.2930    0.3120 C   0  0  0  0  0
    3.5790    0.4340   -0.0320 C   0  0  0  0  0
    3.5020    1.7410    0.1700 C   0  0  0  0  0
    1.3490    0.3420   -1.3480 C   0  0  0  0  0
    1.9430   -1.4860   -0.5230 C   0  0  0  0  0
    4.7080    2.3790    0.8090 C   0  0  0  0  0
    2.3730    2.6630   -0.1540 C   0  0  0  0  0
    0.6200   -0.9660   -1.0590 C   0  0  0  0  0
   -1.4540   -1.7120   -0.0210 C   0  0  0  0  0
    2.4860   -0.2580   -0.5800 N   0  0  0  0  0
   -0.4220   -0.8450   -0.0370 N   0  0  0  0  0
   -3.2450   -2.8630    1.1500 N   0  0  0  0  0
    5.8030    0.3200    0.6620 O   0  0  0  0  0
    4.8450   -1.6390    0.2440 O   0  0  0  0  0
    2.3490   -2.5770   -0.1800 O   0  0  0  0  0
   -1.5200   -2.5910   -0.8540 O   0  0  0  0  0
   -6.1390    2.4750   -0.4420 O   0  0  0  0  0
    0.7980    1.7770   -0.3630 S   0  0  0  0  0
   -2.5260   -1.5880    1.0310 C   0  0  0  0  0
   -3.4930   -0.5010    0.6370 C   0  0  0  0  0
   -3.3890    0.7550    1.2060 C   0  0  0  0  0
   -4.4790   -0.7600   -0.2970 C   0  0  0  0  0
   -4.2730    1.7530    0.8460 C   0  0  0  0  0
   -5.3660    0.2350   -0.6600 C   0  0  0  0  0
   -5.2670    1.4950   -0.0860 C   0  0  0  0  0
    1.5390    0.5520   -2.4000 H   0  0  0  0  0
    5.4490    2.6050    0.0410 H   0  0  0  0  0
    4.4100    3.3010    1.3080 H   0  0  0  0  0
    5.1380    1.6940    1.5380 H   0  0  0  0  0
    2.2660    3.3890    0.6520 H   0  0  0  0  0
    2.6040    3.1940   -1.0790 H   0  0  0  0  0
    0.2780   -1.4830   -1.9560 H   0  0  0  0  0
   -0.3690   -0.1420    0.6290 H   0  0  0  0  0
   -3.9260   -2.8260    1.8930 H   0  0  0  0  0
   -3.6790   -3.1170    0.2750 H   0  0  0  0  0
    5.6760   -2.0720    0.4840 H   0  0  0  0  0
   -5.8460    3.0070   -1.1940 H   0  0  0  0  0
   -2.0690   -1.3380    1.9880 H   0  0  0  0  0
   -2.6150    0.9560    1.9320 H   0  0  0  0  0
   -4.5560   -1.7400   -0.7430 H   0  0  0  0  0
   -4.1920    2.7340    1.2910 H   0  0  0  0  0
   -6.1360    0.0330   -1.3890 H   0  0  0  0  0
  1 13  2  0  0  0
  1 14  1  0  0  0
  2  1  1  0  0  0
  3  6  1  0  0  0
  3  2  2  0  0  0
  4  8  1  0  0  0
  4 10  1  0  0  0
  4 26  1  0  0  0
  5 15  2  0  0  0
  6 27  1  0  0  0
  6 28  1  0  0  0
  6 29  1  0  0  0
  7  3  1  0  0  0
  7 30  1  0  0  0
  7 31  1  0  0  0
  8  5  1  0  0  0
  8 32  1  0  0  0
  9 11  1  0  0  0
 10  5  1  0  0  0
 10  2  1  0  0  0
 11  8  1  0  0  0
 11 33  1  0  0  0
 12 19  1  0  0  0
 12 34  1  0  0  0
 12 35  1  0  0  0
 14 36  1  0  0  0
 16  9  2  0  0  0
 17 25  1  0  0  0
 17 37  1  0  0  0
 18  7  1  0  0  0
 18  4  1  0  0  0
 19  9  1  0  0  0
 19 38  1  0  0  0
 20 19  1  0  0  0
 21 20  2  0  0  0
 21 39  1  0  0  0
 22 20  1  0  0  0
 22 40  1  0  0  0
 23 21  1  0  0  0
 23 41  1  0  0  0
 24 22  2  0  0  0
 24 42  1  0  0  0
 25 23  2  0  0  0
 25 24  1  0  0  0
M  END
$$$$
