A1APV
  CCTOOLS-0919241042

 45 49  0  0  1  0  0  0  0  0999 V2000
    5.1570   -0.4540   -1.7040 C   0  0  0  0  0
    4.6730   -0.7960   -0.5360 C   0  0  0  0  0
    3.5050   -0.0410    0.0450 C   0  0  0  0  0
    2.4250   -0.9820    0.3680 N   0  0  0  0  0
    1.7140   -1.4030   -0.8450 C   0  0  0  0  0
    1.0130   -0.1960   -1.4800 C   0  0  0  0  0
    0.0730    0.4220   -0.4480 C   0  0  0  0  0
   -0.8610    1.4480   -1.0770 C   0  0  0  0  0
   -1.3960    2.4150   -0.0620 C   0  0  0  0  0
   -2.4580    2.9480   -0.2790 O   0  0  0  0  0
   -0.6730    2.7490    1.2080 C   0  0  0  0  0
   -0.0570    1.4850    1.8100 C   0  0  0  0  0
    0.8530    0.8420    0.7870 C   0  0  0  0  0
    1.5110   -0.4130    1.3670 C   0  0  0  0  0
    0.5300   -1.4710    1.8440 C   0  0  0  0  0
   -0.7350   -1.5140    1.0510 C   0  0  0  0  0
   -0.9170   -0.6130    0.0270 C   0  0  0  0  0
   -2.0860   -0.4420   -0.6990 C   0  0  0  0  0
   -3.1400   -1.3320   -0.4610 C   0  0  0  0  0
   -2.9380   -2.3040    0.5170 C   0  0  0  0  0
   -1.7770   -2.3990    1.2660 C   0  0  0  0  0
   -4.3080   -1.2520   -1.1530 O   0  0  0  0  0
   -1.9660    0.6110   -1.5350 O   0  0  0  0  0
    1.8540    1.7930    0.4200 O   0  0  0  0  0
    5.9940   -0.9950   -2.1210 H   0  0  0  0  0
    4.7170    0.3660   -2.2520 H   0  0  0  0  0
    5.1090   -1.6190    0.0100 H   0  0  0  0  0
    3.8210    0.4740    0.9530 H   0  0  0  0  0
    3.1470    0.6890   -0.6800 H   0  0  0  0  0
    2.4260   -1.8230   -1.5550 H   0  0  0  0  0
    0.9720   -2.1580   -0.5870 H   0  0  0  0  0
    1.7570    0.5410   -1.7850 H   0  0  0  0  0
    0.4420   -0.5210   -2.3510 H   0  0  0  0  0
   -0.3810    1.9680   -1.9060 H   0  0  0  0  0
    0.1170    3.4670    0.9880 H   0  0  0  0  0
   -1.3690    3.1880    1.9230 H   0  0  0  0  0
    0.5150    1.7460    2.7000 H   0  0  0  0  0
   -0.8480    0.7830    2.0730 H   0  0  0  0  0
    2.1060   -0.1110    2.2290 H   0  0  0  0  0
    1.0130   -2.4470    1.7840 H   0  0  0  0  0
    0.2800   -1.2710    2.8860 H   0  0  0  0  0
   -3.7270   -3.0190    0.7000 H   0  0  0  0  0
   -1.6850   -3.1660    2.0210 H   0  0  0  0  0
   -4.3200   -1.7780   -1.9650 H   0  0  0  0  0
    2.3910    2.1050    1.1620 H   0  0  0  0  0
  1  2  2  0  0  0
  1 25  1  0  0  0
  1 26  1  0  0  0
  2  3  1  0  0  0
  2 27  1  0  0  0
  3 28  1  0  0  0
  3 29  1  0  0  0
  4  3  1  0  0  0
  4  5  1  0  0  0
  5  6  1  0  0  0
  5 30  1  0  0  0
  5 31  1  0  0  0
  6 32  1  0  0  0
  6 33  1  0  0  0
  7 13  1  0  0  0
  7  8  1  0  0  0
  7  6  1  0  0  0
  8 34  1  0  0  0
  9  8  1  0  0  0
  9 10  2  0  0  0
 11 12  1  0  0  0
 11  9  1  0  0  0
 11 35  1  0  0  0
 11 36  1  0  0  0
 12 13  1  0  0  0
 12 37  1  0  0  0
 12 38  1  0  0  0
 13 24  1  0  0  0
 14  4  1  0  0  0
 14 13  1  0  0  0
 14 39  1  0  0  0
 15 14  1  0  0  0
 15 40  1  0  0  0
 15 41  1  0  0  0
 16 15  1  0  0  0
 16 17  2  0  0  0
 17  7  1  0  0  0
 18 17  1  0  0  0
 18 23  1  0  0  0
 19 18  2  0  0  0
 20 21  2  0  0  0
 20 19  1  0  0  0
 20 42  1  0  0  0
 21 16  1  0  0  0
 21 43  1  0  0  0
 22 19  1  0  0  0
 22 44  1  0  0  0
 23  8  1  0  0  0
 24 45  1  0  0  0
M  END
$$$$
