A1APU
  CCTOOLS-0919241042

 79 83  0  0  1  0  0  0  0  0999 V2000
    3.3960    0.1990    0.0300 C   0  0  0  0  0
    3.6890   -1.0820    0.5100 C   0  0  0  0  0
    3.1280   -2.2800   -0.1540 C   0  0  0  0  0
    2.0300   -4.5410   -1.4020 C   0  0  0  0  0
    1.2240   -3.6360   -0.7850 C   0  0  0  0  0
    3.9510    1.2890    0.6850 C   0  0  0  0  0
    4.3040    3.6210    0.9840 C   0  0  0  0  0
   -5.5090   -0.7090    5.1530 C   0  0  0  0  0
   -5.3670   -0.3660    3.7360 N   0  0  0  0  0
   -4.4790   -1.0290    2.9680 C   0  0  0  0  0
   -4.3330   -0.6770    1.5100 C   0  0  0  0  0
   -3.3130   -1.5340    0.9010 N   0  0  0  0  0
   -2.0110   -1.1950    0.9810 C   0  0  0  0  0
   -0.9620   -2.0770    0.3540 C   0  0  0  0  0
    0.6790   -1.3550    0.6310 S   0  0  0  0  0
    1.7550   -2.5050   -0.1590 C   0  0  0  0  0
    3.6950    2.5530    0.2560 O   0  0  0  0  0
    3.9090    4.9390    0.3670 C   0  0  0  0  0
    4.6780    5.4880   -0.6410 C   0  0  0  0  0
    4.3130    6.6940   -1.2100 C   0  0  0  0  0
    3.1780    7.3500   -0.7710 C   0  0  0  0  0
    2.4090    6.8000    0.2370 C   0  0  0  0  0
    2.7740    5.5950    0.8070 C   0  0  0  0  0
    4.7710    1.0730    1.7840 C   0  0  0  0  0
    5.0270   -0.1480    2.2110 N   0  0  0  0  0
    4.5180   -1.2120    1.6240 C   0  0  0  0  0
    3.9820   -3.2080   -0.7960 C   0  0  0  0  0
    3.4230   -4.3470   -1.4250 C   0  0  0  0  0
    4.2730   -5.2710   -2.0560 C   0  0  0  0  0
    5.6180   -5.0550   -2.0610 C   0  0  0  0  0
    6.1660   -3.9310   -1.4480 C   0  0  0  0  0
    5.3720   -3.0190   -0.8210 C   0  0  0  0  0
   -1.6840   -0.1790    1.5580 O   0  0  0  0  0
   -5.6700   -0.8880    0.7970 C   0  0  0  0  0
   -5.5570   -0.4200   -0.6310 C   0  0  0  0  0
   -5.8500    0.8910   -0.9530 C   0  0  0  0  0
   -5.7450    1.3210   -2.2670 C   0  0  0  0  0
   -6.0320    2.6110   -2.5860 O   0  0  0  0  0
   -6.4360    3.4690   -1.5180 C   0  0  0  0  0
   -5.3470    0.4340   -3.2560 C   0  0  0  0  0
   -5.2320    0.8980   -4.6850 C   0  0  0  0  0
   -5.0550   -0.8770   -2.9290 C   0  0  0  0  0
   -5.1550   -1.3020   -1.6170 C   0  0  0  0  0
   -3.8000   -1.9100    3.4500 O   0  0  0  0  0
    2.7570    0.3350   -0.8310 H   0  0  0  0  0
    1.5990   -5.4080   -1.8800 H   0  0  0  0  0
    0.1550   -3.7970   -0.7750 H   0  0  0  0  0
    3.9710    3.5910    2.0210 H   0  0  0  0  0
    5.3880    3.5140    0.9470 H   0  0  0  0  0
   -5.8100   -1.7520    5.2460 H   0  0  0  0  0
   -4.5570   -0.5580    5.6610 H   0  0  0  0  0
   -6.2680   -0.0710    5.6060 H   0  0  0  0  0
   -5.9100    0.3390    3.3500 H   0  0  0  0  0
   -4.0320    0.3670    1.4170 H   0  0  0  0  0
   -3.5750   -2.3460    0.4390 H   0  0  0  0  0
   -1.0040   -3.0680    0.8050 H   0  0  0  0  0
   -1.1480   -2.1570   -0.7170 H   0  0  0  0  0
    5.5650    4.9760   -0.9850 H   0  0  0  0  0
    4.9150    7.1230   -1.9980 H   0  0  0  0  0
    2.8940    8.2920   -1.2150 H   0  0  0  0  0
    1.5220    7.3120    0.5800 H   0  0  0  0  0
    2.1710    5.1630    1.5920 H   0  0  0  0  0
    5.2100    1.9180    2.2950 H   0  0  0  0  0
    4.7520   -2.1950    2.0040 H   0  0  0  0  0
    3.8620   -6.1470   -2.5350 H   0  0  0  0  0
    6.2690   -5.7670   -2.5470 H   0  0  0  0  0
    7.2360   -3.7830   -1.4650 H   0  0  0  0  0
    5.8100   -2.1540   -0.3450 H   0  0  0  0  0
   -5.9260   -1.9470    0.8130 H   0  0  0  0  0
   -6.4470   -0.3180    1.3060 H   0  0  0  0  0
   -6.1600    1.5800   -0.1810 H   0  0  0  0  0
   -7.3400    3.0730   -1.0550 H   0  0  0  0  0
   -5.6410    3.5220   -0.7740 H   0  0  0  0  0
   -6.6340    4.4670   -1.9080 H   0  0  0  0  0
   -4.2230    1.2680   -4.8660 H   0  0  0  0  0
   -5.4380    0.0640   -5.3560 H   0  0  0  0  0
   -5.9500    1.6970   -4.8660 H   0  0  0  0  0
   -4.7450   -1.5690   -3.6980 H   0  0  0  0  0
   -4.9220   -2.3250   -1.3630 H   0  0  0  0  0
  1  2  1  0  0  0
  1 45  1  0  0  0
  2  3  1  0  0  0
  3 27  1  0  0  0
  4 28  1  0  0  0
  4 46  1  0  0  0
  5  4  2  0  0  0
  5 47  1  0  0  0
  6  1  2  0  0  0
  7 48  1  0  0  0
  7 49  1  0  0  0
  8  9  1  0  0  0
  8 50  1  0  0  0
  8 51  1  0  0  0
  8 52  1  0  0  0
  9 53  1  0  0  0
 10  9  1  0  0  0
 10 11  1  0  0  0
 11 34  1  0  0  0
 11 54  1  0  0  0
 12 11  1  0  0  0
 12 55  1  0  0  0
 13 33  2  0  0  0
 13 12  1  0  0  0
 14 15  1  0  0  0
 14 13  1  0  0  0
 14 56  1  0  0  0
 14 57  1  0  0  0
 15 16  1  0  0  0
 16  3  2  0  0  0
 16  5  1  0  0  0
 17  6  1  0  0  0
 17  7  1  0  0  0
 18 23  1  0  0  0
 18  7  1  0  0  0
 19 18  2  0  0  0
 19 58  1  0  0  0
 20 21  2  0  0  0
 20 19  1  0  0  0
 20 59  1  0  0  0
 21 22  1  0  0  0
 21 60  1  0  0  0
 22 23  2  0  0  0
 22 61  1  0  0  0
 23 62  1  0  0  0
 24 25  2  0  0  0
 24  6  1  0  0  0
 24 63  1  0  0  0
 25 26  1  0  0  0
 26  2  2  0  0  0
 26 64  1  0  0  0
 27 28  1  0  0  0
 28 29  2  0  0  0
 29 65  1  0  0  0
 30 29  1  0  0  0
 30 66  1  0  0  0
 31 30  2  0  0  0
 31 67  1  0  0  0
 32 27  2  0  0  0
 32 31  1  0  0  0
 32 68  1  0  0  0
 34 35  1  0  0  0
 34 69  1  0  0  0
 34 70  1  0  0  0
 35 43  1  0  0  0
 36 35  2  0  0  0
 36 37  1  0  0  0
 36 71  1  0  0  0
 37 40  2  0  0  0
 38 37  1  0  0  0
 39 38  1  0  0  0
 39 72  1  0  0  0
 39 73  1  0  0  0
 39 74  1  0  0  0
 40 42  1  0  0  0
 40 41  1  0  0  0
 41 75  1  0  0  0
 41 76  1  0  0  0
 41 77  1  0  0  0
 42 78  1  0  0  0
 43 42  2  0  0  0
 43 79  1  0  0  0
 44 10  2  0  0  0
M  END
$$$$
