A1D5D
  CCTOOLS-0919241042

 94 97  0  0  1  0  0  0  0  0999 V2000
    4.5180   -0.6510    1.0110 C   0  0  0  0  0
    0.9280   -2.2460   -0.8870 C   0  0  0  0  0
   -0.5210   -4.2110   -0.4130 C   0  0  0  0  0
   -2.6330   -3.1970   -1.8990 C   0  0  0  0  0
   -3.6870   -2.6630   -2.6580 C   0  0  0  0  0
   -3.5330   -1.4560   -3.2690 C   0  0  0  0  0
   -1.3000   -1.2270   -2.4280 C   0  0  0  0  0
    7.2910   -0.6380   -0.8560 C   0  0  0  0  0
    7.1380    0.0400    0.5070 C   0  0  0  0  0
    8.4040    0.8380    0.8250 C   0  0  0  0  0
    8.5530    1.9800   -0.1820 C   0  0  0  0  0
    6.9210   -1.0240    1.5850 C   0  0  0  0  0
    5.5690   -1.7060    1.3640 C   0  0  0  0  0
    5.1510   -2.4350    2.6430 C   0  0  0  0  0
    5.6870   -2.7130    0.2180 C   0  0  0  0  0
    2.1420   -0.5670    0.4770 C   0  0  0  0  0
    0.8110   -1.2390    0.2590 C   0  0  0  0  0
   -0.3670   -3.0040   -1.0240 C   0  0  0  0  0
   -1.7110   -4.9260   -0.5280 C   0  0  0  0  0
   -2.7540   -4.4400   -1.2540 C   0  0  0  0  0
   -2.3430   -0.7400   -3.1550 C   0  0  0  0  0
   -1.4220   -2.4690   -1.7820 C   0  0  0  0  0
   -1.4990   -0.4680    0.1690 C   0  0  0  0  0
   -3.8410    0.2020    0.1270 C   0  0  0  0  0
   -4.1910    0.6940    1.5330 C   0  0  0  0  0
   -5.6490    0.4270    1.8100 C   0  0  0  0  0
   -6.5990    1.3770    1.4860 C   0  0  0  0  0
   -7.9350    1.1330    1.7400 C   0  0  0  0  0
   -8.3220   -0.0620    2.3180 C   0  0  0  0  0
   -7.3720   -1.0120    2.6420 C   0  0  0  0  0
   -6.0360   -0.7700    2.3830 C   0  0  0  0  0
   -2.0150    1.7290   -0.7490 C   0  0  0  0  0
   -1.7290    2.7530    0.3510 C   0  0  0  0  0
   -1.3070    4.0580   -0.2740 C   0  0  0  0  0
   -1.9840    5.2200    0.0480 C   0  0  0  0  0
   -1.5880    6.4150   -0.5330 C   0  0  0  0  0
   -0.5210    6.3970   -1.4180 C   0  0  0  0  0
    0.1070    5.1960   -1.6910 C   0  0  0  0  0
    9.7690    2.7470    0.1240 N   0  0  0  0  0
    3.2240   -1.3040    0.8000 N   0  0  0  0  0
   -0.1960   -0.2290   -0.0790 N   0  0  0  0  0
   -2.4250    0.4610   -0.1420 N   0  0  0  0  0
   -0.2930    4.0790   -1.1170 N   0  0  0  0  0
    2.2410    0.6360    0.3600 O   0  0  0  0  0
   -1.8390   -1.5210    0.6730 O   0  0  0  0  0
    4.4350    0.0660    1.8270 H   0  0  0  0  0
    4.8160   -0.1320    0.1000 H   0  0  0  0  0
    1.1390   -1.7160   -1.8160 H   0  0  0  0  0
    1.7380   -2.9440   -0.6750 H   0  0  0  0  0
    0.2930   -4.6220    0.1660 H   0  0  0  0  0
   -4.6150   -3.2060   -2.7560 H   0  0  0  0  0
   -4.3450   -1.0480   -3.8520 H   0  0  0  0  0
   -0.3840   -0.6610   -2.3480 H   0  0  0  0  0
    6.3060   -0.8620   -1.2640 H   0  0  0  0  0
    7.8230    0.0270   -1.5350 H   0  0  0  0  0
    7.8550   -1.5640   -0.7390 H   0  0  0  0  0
    6.2810    0.7130    0.4830 H   0  0  0  0  0
    8.3310    1.2480    1.8320 H   0  0  0  0  0
    9.2720    0.1820    0.7610 H   0  0  0  0  0
    8.6250    1.5700   -1.1890 H   0  0  0  0  0
    7.6850    2.6360   -0.1180 H   0  0  0  0  0
    7.7160   -1.7670    1.5270 H   0  0  0  0  0
    6.9350   -0.5530    2.5680 H   0  0  0  0  0
    5.1450   -1.7320    3.4760 H   0  0  0  0  0
    4.1530   -2.8520    2.5130 H   0  0  0  0  0
    5.8570   -3.2390    2.8500 H   0  0  0  0  0
    6.3980   -3.4920    0.4910 H   0  0  0  0  0
    4.7120   -3.1610    0.0280 H   0  0  0  0  0
    6.0340   -2.2020   -0.6800 H   0  0  0  0  0
    0.5130   -1.7580    1.1700 H   0  0  0  0  0
   -1.8070   -5.8820   -0.0330 H   0  0  0  0  0
   -3.6710   -5.0050   -1.3340 H   0  0  0  0  0
   -2.2470    0.2140   -3.6500 H   0  0  0  0  0
   -4.0340   -0.8690    0.0580 H   0  0  0  0  0
   -4.4530    0.7290   -0.6050 H   0  0  0  0  0
   -3.5800    0.1660    2.2650 H   0  0  0  0  0
   -3.9980    1.7640    1.6020 H   0  0  0  0  0
   -6.2970    2.3110    1.0340 H   0  0  0  0  0
   -8.6780    1.8750    1.4870 H   0  0  0  0  0
   -9.3660   -0.2530    2.5170 H   0  0  0  0  0
   -7.6740   -1.9460    3.0930 H   0  0  0  0  0
   -5.2940   -1.5140    2.6320 H   0  0  0  0  0
   -2.8140    2.1000   -1.3920 H   0  0  0  0  0
   -1.1140    1.5740   -1.3430 H   0  0  0  0  0
   -2.6290    2.9090    0.9450 H   0  0  0  0  0
   -0.9300    2.3830    0.9930 H   0  0  0  0  0
   -2.8110    5.1960    0.7420 H   0  0  0  0  0
   -2.0980    7.3380   -0.3010 H   0  0  0  0  0
   -0.1860    7.3090   -1.8890 H   0  0  0  0  0
    0.9390    5.1740   -2.3800 H   0  0  0  0  0
   10.5800    2.1480    0.1350 H   0  0  0  0  0
    9.8890    3.5080   -0.5270 H   0  0  0  0  0
    3.1450   -2.2660    0.8930 H   0  0  0  0  0
    0.0760    0.6100   -0.4810 H   0  0  0  0  0
  1 40  1  0  0  0
  1 46  1  0  0  0
  1 47  1  0  0  0
  2 18  1  0  0  0
  2 48  1  0  0  0
  2 49  1  0  0  0
  3 18  2  0  0  0
  3 19  1  0  0  0
  3 50  1  0  0  0
  4  5  2  0  0  0
  5  6  1  0  0  0
  5 51  1  0  0  0
  6 52  1  0  0  0
  7 21  1  0  0  0
  7 53  1  0  0  0
  8  9  1  0  0  0
  8 54  1  0  0  0
  8 55  1  0  0  0
  8 56  1  0  0  0
  9 57  1  0  0  0
 10  9  1  0  0  0
 10 58  1  0  0  0
 10 59  1  0  0  0
 11 10  1  0  0  0
 11 60  1  0  0  0
 11 61  1  0  0  0
 12  9  1  0  0  0
 12 13  1  0  0  0
 12 62  1  0  0  0
 12 63  1  0  0  0
 13 14  1  0  0  0
 13  1  1  0  0  0
 14 64  1  0  0  0
 14 65  1  0  0  0
 14 66  1  0  0  0
 15 13  1  0  0  0
 15 67  1  0  0  0
 15 68  1  0  0  0
 15 69  1  0  0  0
 16 17  1  0  0  0
 17  2  1  0  0  0
 17 41  1  0  0  0
 17 70  1  0  0  0
 18 22  1  0  0  0
 19 20  2  0  0  0
 19 71  1  0  0  0
 20  4  1  0  0  0
 20 72  1  0  0  0
 21  6  2  0  0  0
 21 73  1  0  0  0
 22  7  2  0  0  0
 22  4  1  0  0  0
 23 45  2  0  0  0
 23 42  1  0  0  0
 24 25  1  0  0  0
 24 74  1  0  0  0
 24 75  1  0  0  0
 25 26  1  0  0  0
 25 76  1  0  0  0
 25 77  1  0  0  0
 26 31  2  0  0  0
 26 27  1  0  0  0
 27 28  2  0  0  0
 27 78  1  0  0  0
 28 29  1  0  0  0
 28 79  1  0  0  0
 29 80  1  0  0  0
 30 29  2  0  0  0
 30 81  1  0  0  0
 31 30  1  0  0  0
 31 82  1  0  0  0
 32 42  1  0  0  0
 32 83  1  0  0  0
 32 84  1  0  0  0
 33 34  1  0  0  0
 33 32  1  0  0  0
 33 85  1  0  0  0
 33 86  1  0  0  0
 34 43  2  0  0  0
 35 36  2  0  0  0
 35 34  1  0  0  0
 35 87  1  0  0  0
 36 37  1  0  0  0
 36 88  1  0  0  0
 37 38  2  0  0  0
 37 89  1  0  0  0
 38 90  1  0  0  0
 39 11  1  0  0  0
 39 91  1  0  0  0
 39 92  1  0  0  0
 40 16  1  0  0  0
 40 93  1  0  0  0
 41 23  1  0  0  0
 41 94  1  0  0  0
 42 24  1  0  0  0
 43 38  1  0  0  0
 44 16  2  0  0  0
M  END
$$$$
