A1D5A
  CCTOOLS-1115241517

 58 59  0  0  1  0  0  0  0  0999 V2000
    2.9350    2.3460    0.5160 C   0  0  0  0  0
    2.7760    4.5900   -0.5060 C   0  0  0  0  0
    1.5980    2.4920   -0.2410 C   0  0  0  0  0
   -0.2240    0.8740   -0.0820 C   0  0  0  0  0
   -4.8970   -0.4250   -0.0390 C   0  0  0  0  0
   -5.1130    0.2920   -1.2070 C   0  0  0  0  0
   -7.4030   -0.4090   -1.2130 C   0  0  0  0  0
   -5.9390   -1.1340    0.5400 C   0  0  0  0  0
    5.4930   -4.7820   -0.6050 C   0  0  0  0  0
    4.5830   -3.6940   -0.0980 C   0  0  0  0  0
    5.4170   -2.4730    0.2960 C   0  0  0  0  0
    4.4930   -1.3680    0.8120 C   0  0  0  0  0
    5.3150   -0.1660    1.2000 C   0  0  0  0  0
    5.0170    1.0150    0.7180 C   0  0  0  0  0
    3.7560    1.2040   -0.0860 C   0  0  0  0  0
    3.6830    3.6800    0.3480 C   0  0  0  0  0
    1.3520    4.0210   -0.2860 C   0  0  0  0  0
    0.4890    1.8010    0.5100 C   0  0  0  0  0
   -1.3330    0.1840    0.6680 C   0  0  0  0  0
   -2.6390    0.3160   -0.1170 C   0  0  0  0  0
   -6.3650    0.2980   -1.7910 C   0  0  0  0  0
   -7.1920   -1.1200   -0.0450 C   0  0  0  0  0
    6.6870   -4.6010   -0.6470 O   0  0  0  0  0
    4.9770   -5.9530   -1.0100 O   0  0  0  0  0
    4.9270    3.4620   -0.3220 O   0  0  0  0  0
   -3.6650   -0.4370    0.5340 O   0  0  0  0  0
   -1.4870    0.7880    1.9540 O   0  0  0  0  0
    0.4950    4.3630   -1.3770 O   0  0  0  0  0
   -8.4980   -2.0060    0.6790 CL  0  0  0  0  0
    2.7470    2.1540    1.5730 H   0  0  0  0  0
    2.8330    5.6210   -0.1570 H   0  0  0  0  0
    3.0550    4.5280   -1.5580 H   0  0  0  0  0
    1.6860    2.0900   -1.2500 H   0  0  0  0  0
   -0.0160    0.6060   -1.1070 H   0  0  0  0  0
   -4.3030    0.8450   -1.6590 H   0  0  0  0  0
   -8.3800   -0.4060   -1.6740 H   0  0  0  0  0
   -5.7730   -1.6960    1.4470 H   0  0  0  0  0
    3.8780   -3.4140   -0.8810 H   0  0  0  0  0
    4.0340   -4.0550    0.7720 H   0  0  0  0  0
    6.1220   -2.7530    1.0800 H   0  0  0  0  0
    5.9660   -2.1120   -0.5730 H   0  0  0  0  0
    3.7890   -1.0890    0.0280 H   0  0  0  0  0
    3.9450   -1.7290    1.6810 H   0  0  0  0  0
    6.1510   -0.2780    1.8750 H   0  0  0  0  0
    5.6740    1.8530    0.8960 H   0  0  0  0  0
    3.1710    0.2850   -0.0650 H   0  0  0  0  0
    4.0150    1.4470   -1.1160 H   0  0  0  0  0
    3.8580    4.1360    1.3220 H   0  0  0  0  0
    0.9370    4.3730    0.6580 H   0  0  0  0  0
    0.2820    2.0700    1.5350 H   0  0  0  0  0
   -1.0870   -0.8720    0.7900 H   0  0  0  0  0
   -2.9310    1.3650   -0.1620 H   0  0  0  0  0
   -2.4960   -0.0650   -1.1280 H   0  0  0  0  0
   -6.5320    0.8520   -2.7030 H   0  0  0  0  0
    5.6010   -6.6210   -1.3270 H   0  0  0  0  0
    5.4460    4.2660   -0.4580 H   0  0  0  0  0
   -1.7070    1.7290    1.9230 H   0  0  0  0  0
    0.3100    5.3100   -1.4490 H   0  0  0  0  0
  1 15  1  0  0  0
  1 16  1  0  0  0
  1 30  1  0  0  0
  2 16  1  0  0  0
  2 31  1  0  0  0
  2 32  1  0  0  0
  3 17  1  0  0  0
  3  1  1  0  0  0
  3 33  1  0  0  0
  4 18  2  0  0  0
  4 34  1  0  0  0
  5  8  1  0  0  0
  5 26  1  0  0  0
  6  5  2  0  0  0
  6 35  1  0  0  0
  7 22  1  0  0  0
  7 36  1  0  0  0
  8 37  1  0  0  0
  9 24  1  0  0  0
 10 11  1  0  0  0
 10  9  1  0  0  0
 10 38  1  0  0  0
 10 39  1  0  0  0
 11 40  1  0  0  0
 11 41  1  0  0  0
 12 13  1  0  0  0
 12 11  1  0  0  0
 12 42  1  0  0  0
 12 43  1  0  0  0
 13 44  1  0  0  0
 14 13  2  0  0  0
 14 45  1  0  0  0
 15 14  1  0  0  0
 15 46  1  0  0  0
 15 47  1  0  0  0
 16 48  1  0  0  0
 17  2  1  0  0  0
 17 49  1  0  0  0
 18  3  1  0  0  0
 18 50  1  0  0  0
 19 20  1  0  0  0
 19  4  1  0  0  0
 19 51  1  0  0  0
 20 52  1  0  0  0
 20 53  1  0  0  0
 21  7  2  0  0  0
 21  6  1  0  0  0
 21 54  1  0  0  0
 22 29  1  0  0  0
 22  8  2  0  0  0
 23  9  2  0  0  0
 24 55  1  0  0  0
 25 16  1  0  0  0
 25 56  1  0  0  0
 26 20  1  0  0  0
 27 19  1  0  0  0
 27 57  1  0  0  0
 28 17  1  0  0  0
 28 58  1  0  0  0
M  END
$$$$
