A1D5N
  CCTOOLS-0919241042

 65 67  0  0  1  0  0  0  0  0999 V2000
    3.4190    2.0010    0.6930 C   0  0  0  0  0
    4.5210    1.2910    1.4820 C   0  0  0  0  0
    4.0520    2.9890   -0.2890 C   0  0  0  0  0
    1.2740    0.8110    0.0480 C   0  0  0  0  0
    3.1140    0.1170   -0.9550 C   0  0  0  0  0
   -5.1150   -0.3030    0.1710 C   0  0  0  0  0
   -5.4460   -1.5150    1.0440 C   0  0  0  0  0
   -6.8760   -1.9760    0.7540 C   0  0  0  0  0
    0.9730   -0.2350   -0.8450 C   0  0  0  0  0
    4.5600   -0.0090   -1.3600 C   0  0  0  0  0
    0.2630    1.4060    0.7920 C   0  0  0  0  0
   -6.0210    0.8670    0.5580 C   0  0  0  0  0
   -1.3450   -0.0590   -0.2230 C   0  0  0  0  0
   -0.3450   -0.6670   -0.9770 C   0  0  0  0  0
    5.2350    2.3010    2.3830 C   0  0  0  0  0
    2.9550    3.8370   -0.9370 C   0  0  0  0  0
   -1.0270    0.9800    0.6610 C   0  0  0  0  0
   -2.7450   -0.5110   -0.3560 C   0  0  0  0  0
   -6.9660   -2.4810   -0.6880 C   0  0  0  0  0
   -7.2520   -3.1060    1.7150 C   0  0  0  0  0
    5.1540   -1.2400   -0.7260 C   0  0  0  0  0
   -5.7800    2.0210   -0.3820 C   0  0  0  0  0
    5.2440   -2.4370   -1.3070 C   0  0  0  0  0
    5.8300   -3.4210   -0.5280 C   0  0  0  0  0
    6.2160   -3.0220    0.6850 C   0  0  0  0  0
    2.6340    1.0110   -0.0480 N   0  0  0  0  0
    2.1440   -0.6120   -1.4230 N   0  0  0  0  0
   -3.7140    0.0760    0.3740 N   0  0  0  0  0
   -3.0230   -1.4130   -1.1220 O   0  0  0  0  0
   -6.4690    3.1630   -0.2320 O   0  0  0  0  0
   -4.9670    1.9180   -1.2690 O   0  0  0  0  0
    5.8430   -1.3150    0.8910 S   0  0  0  0  0
    2.7680    2.5390    1.3820 H   0  0  0  0  0
    4.0790    0.5050    2.0960 H   0  0  0  0  0
    5.2380    0.8510    0.7900 H   0  0  0  0  0
    4.7450    3.6390    0.2460 H   0  0  0  0  0
    4.5910    2.4400   -1.0610 H   0  0  0  0  0
   -5.2750   -0.5550   -0.8770 H   0  0  0  0  0
   -4.7510   -2.3240    0.8210 H   0  0  0  0  0
   -5.3590   -1.2400    2.0950 H   0  0  0  0  0
   -7.5620   -1.1400    0.8900 H   0  0  0  0  0
    4.6280   -0.0910   -2.4450 H   0  0  0  0  0
    5.1090    0.8720   -1.0280 H   0  0  0  0  0
    0.4980    2.2080    1.4760 H   0  0  0  0  0
   -7.0640    0.5570    0.4920 H   0  0  0  0  0
   -5.7980    1.1780    1.5790 H   0  0  0  0  0
   -0.5900   -1.4690   -1.6580 H   0  0  0  0  0
    5.7630    3.0270    1.7660 H   0  0  0  0  0
    4.5020    2.8160    3.0040 H   0  0  0  0  0
    5.9490    1.7780    3.0200 H   0  0  0  0  0
    2.2180    3.1820   -1.4020 H   0  0  0  0  0
    2.4700    4.4470   -0.1760 H   0  0  0  0  0
    3.3970    4.4840   -1.6950 H   0  0  0  0  0
   -1.8080    1.4460    1.2430 H   0  0  0  0  0
   -7.9970   -2.7560   -0.9120 H   0  0  0  0  0
   -6.6430   -1.6950   -1.3690 H   0  0  0  0  0
   -6.3240   -3.3540   -0.8080 H   0  0  0  0  0
   -7.1870   -2.7460    2.7420 H   0  0  0  0  0
   -8.2710   -3.4350    1.5080 H   0  0  0  0  0
   -6.5660   -3.9420    1.5790 H   0  0  0  0  0
    4.8860   -2.6250   -2.3080 H   0  0  0  0  0
    5.9600   -4.4350   -0.8750 H   0  0  0  0  0
    6.6890   -3.6490    1.4250 H   0  0  0  0  0
   -3.4850    0.7500    1.0330 H   0  0  0  0  0
   -6.2800    3.8750   -0.8590 H   0  0  0  0  0
  1  3  1  0  0  0
  1 33  1  0  0  0
  2  1  1  0  0  0
  2 34  1  0  0  0
  2 35  1  0  0  0
  3 16  1  0  0  0
  3 36  1  0  0  0
  3 37  1  0  0  0
  4 11  2  0  0  0
  5 27  2  0  0  0
  5 26  1  0  0  0
  6 12  1  0  0  0
  6 38  1  0  0  0
  7  6  1  0  0  0
  7 39  1  0  0  0
  7 40  1  0  0  0
  8  7  1  0  0  0
  8 41  1  0  0  0
  9 14  2  0  0  0
  9  4  1  0  0  0
 10  5  1  0  0  0
 10 42  1  0  0  0
 10 43  1  0  0  0
 11 17  1  0  0  0
 11 44  1  0  0  0
 12 22  1  0  0  0
 12 45  1  0  0  0
 12 46  1  0  0  0
 13 18  1  0  0  0
 13 17  2  0  0  0
 14 13  1  0  0  0
 14 47  1  0  0  0
 15  2  1  0  0  0
 15 48  1  0  0  0
 15 49  1  0  0  0
 15 50  1  0  0  0
 16 51  1  0  0  0
 16 52  1  0  0  0
 16 53  1  0  0  0
 17 54  1  0  0  0
 18 29  2  0  0  0
 18 28  1  0  0  0
 19  8  1  0  0  0
 19 55  1  0  0  0
 19 56  1  0  0  0
 19 57  1  0  0  0
 20  8  1  0  0  0
 20 58  1  0  0  0
 20 59  1  0  0  0
 20 60  1  0  0  0
 21 10  1  0  0  0
 22 30  1  0  0  0
 23 21  2  0  0  0
 23 61  1  0  0  0
 24 25  2  0  0  0
 24 23  1  0  0  0
 24 62  1  0  0  0
 25 32  1  0  0  0
 25 63  1  0  0  0
 26  1  1  0  0  0
 26  4  1  0  0  0
 27  9  1  0  0  0
 28  6  1  0  0  0
 28 64  1  0  0  0
 30 65  1  0  0  0
 31 22  2  0  0  0
 32 21  1  0  0  0
M  END
$$$$
