A1D67
  CCTOOLS-0919241042

 21 21  0  0  0  0  0  0  0  0999 V2000
    1.7640   -0.1880   -0.6800 C   0  0  0  0  0
    0.3060   -0.0030   -0.3500 C   0  0  0  0  0
    2.5550   -0.4120    0.6100 C   0  0  0  0  0
   -0.2970    1.1580   -0.0890 C   0  0  0  0  0
    0.4360    2.4750   -0.0940 C   0  0  0  0  0
   -2.1030   -0.1300    0.1470 C   0  0  0  0  0
   -1.5880    1.0600    0.1740 N   0  0  0  0  0
    3.9770   -0.5920    0.2880 N   0  0  0  0  0
   -3.4340   -0.4240    0.3950 N   0  0  0  0  0
   -0.9020   -1.2810   -0.2480 S   0  0  0  0  0
    1.8820   -1.0530   -1.3330 H   0  0  0  0  0
    2.1380    0.7020   -1.1860 H   0  0  0  0  0
    2.4380    0.4540    1.2630 H   0  0  0  0  0
    2.1810   -1.3020    1.1160 H   0  0  0  0  0
    0.4000    2.9070   -1.0940 H   0  0  0  0  0
   -0.0370    3.1560    0.6130 H   0  0  0  0  0
    1.4740    2.3140    0.1950 H   0  0  0  0  0
    4.3310    0.1930   -0.2390 H   0  0  0  0  0
    4.5210   -0.7420    1.1240 H   0  0  0  0  0
   -4.0570    0.2880    0.6090 H   0  0  0  0  0
   -3.7440   -1.3430    0.3550 H   0  0  0  0  0
  1  2  1  0  0  0
  1  3  1  0  0  0
  1 11  1  0  0  0
  1 12  1  0  0  0
  2  4  2  0  0  0
  3 13  1  0  0  0
  3 14  1  0  0  0
  4  5  1  0  0  0
  5 15  1  0  0  0
  5 16  1  0  0  0
  5 17  1  0  0  0
  7  4  1  0  0  0
  7  6  2  0  0  0
  8  3  1  0  0  0
  8 18  1  0  0  0
  8 19  1  0  0  0
  9  6  1  0  0  0
  9 20  1  0  0  0
  9 21  1  0  0  0
 10  2  1  0  0  0
 10  6  1  0  0  0
M  END
$$$$
