A1D8M
  CCTOOLS-0919241042

 60 63  0  0  1  0  0  0  0  0999 V2000
    9.0780   -3.4350    0.2010 C   0  0  0  0  0
    4.7220    0.1750   -0.5620 C   0  0  0  0  0
   -3.5210    1.2240    0.5600 C   0  0  0  0  0
   -4.7730    0.6530    0.5370 C   0  0  0  0  0
   -4.9820   -0.5470   -0.1480 C   0  0  0  0  0
   -8.6840   -1.1700    0.4370 C   0  0  0  0  0
   -9.4770   -0.7110    1.6610 C   0  0  0  0  0
    4.0820    2.3530   -2.4620 C   0  0  0  0  0
    2.6520    2.5260   -1.9440 C   0  0  0  0  0
    2.3940    1.5220   -0.8180 C   0  0  0  0  0
    3.2390    1.8250    0.2940 O   0  0  0  0  0
    4.3720    1.0890    0.4250 C   0  0  0  0  0
    5.1770    1.2520    1.5470 C   0  0  0  0  0
    6.3230    0.5120    1.6840 C   0  0  0  0  0
    6.6810   -0.4100    0.6930 C   0  0  0  0  0
    7.9070   -1.2070    0.8360 C   0  0  0  0  0
    8.6110   -1.0660    1.8130 O   0  0  0  0  0
    8.2900   -2.1980   -0.2330 C   0  0  0  0  0
    9.7740   -2.3210   -0.5830 C   0  0  0  0  0
    5.8660   -0.5710   -0.4340 C   0  0  0  0  0
    0.9510    1.6070   -0.3900 C   0  0  0  0  0
    0.0060    0.7450   -0.6680 N   0  0  0  0  0
   -1.1110    1.2270   -0.0770 C   0  0  0  0  0
   -2.4580    0.6060   -0.1000 C   0  0  0  0  0
   -6.3250   -1.1600   -0.1750 C   0  0  0  0  0
   -6.5050   -2.2040   -0.7710 O   0  0  0  0  0
   -7.3510   -0.5620    0.4630 N   0  0  0  0  0
   -9.4160   -0.7410   -0.8360 C   0  0  0  0  0
   -9.7030    0.6970    1.5820 O   0  0  0  0  0
   -3.9160   -1.1670   -0.8090 C   0  0  0  0  0
   -4.1140   -2.3270   -1.4730 F   0  0  0  0  0
   -2.6600   -0.5930   -0.7790 C   0  0  0  0  0
   -0.7800    2.3430    0.5190 N   0  0  0  0  0
    0.3980    2.5740    0.3480 O   0  0  0  0  0
    9.3200   -3.5320    1.2600 H   0  0  0  0  0
    8.8770   -4.3700   -0.3230 H   0  0  0  0  0
    4.0910    0.0490   -1.4290 H   0  0  0  0  0
   -3.3620    2.1530    1.0860 H   0  0  0  0  0
   -5.5950    1.1320    1.0480 H   0  0  0  0  0
   -8.5880   -2.2560    0.4520 H   0  0  0  0  0
  -10.4350   -1.2320    1.6900 H   0  0  0  0  0
   -8.9140   -0.9390    2.5660 H   0  0  0  0  0
    4.2660    3.0680   -3.2640 H   0  0  0  0  0
    4.7870    2.5290   -1.6500 H   0  0  0  0  0
    4.2100    1.3400   -2.8430 H   0  0  0  0  0
    2.5240    3.5390   -1.5630 H   0  0  0  0  0
    1.9470    2.3500   -2.7560 H   0  0  0  0  0
    2.6090    0.5140   -1.1730 H   0  0  0  0  0
    4.9000    1.9630    2.3110 H   0  0  0  0  0
    6.9480    0.6390    2.5560 H   0  0  0  0  0
    7.5690   -2.3190   -1.0420 H   0  0  0  0  0
   10.4730   -1.6850   -0.0410 H   0  0  0  0  0
   10.0300   -2.5230   -1.6230 H   0  0  0  0  0
    6.1350   -1.2840   -1.1990 H   0  0  0  0  0
   -7.2070    0.2710    0.9390 H   0  0  0  0  0
   -9.5110    0.3450   -0.8510 H   0  0  0  0  0
   -8.8500   -1.0680   -1.7090 H   0  0  0  0  0
  -10.4070   -1.1930   -0.8550 H   0  0  0  0  0
  -10.2020    1.0580    2.3280 H   0  0  0  0  0
   -1.8360   -1.0700   -1.2890 H   0  0  0  0  0
  1 19  1  0  0  0
  1 35  1  0  0  0
  1 36  1  0  0  0
  2 20  1  0  0  0
  2 37  1  0  0  0
  3 24  1  0  0  0
  3 38  1  0  0  0
  4  3  2  0  0  0
  4 39  1  0  0  0
  5 30  2  0  0  0
  5  4  1  0  0  0
  6  7  1  0  0  0
  6 27  1  0  0  0
  6 40  1  0  0  0
  7 41  1  0  0  0
  7 42  1  0  0  0
  8  9  1  0  0  0
  8 43  1  0  0  0
  8 44  1  0  0  0
  8 45  1  0  0  0
  9 10  1  0  0  0
  9 46  1  0  0  0
  9 47  1  0  0  0
 10 11  1  0  0  0
 10 48  1  0  0  0
 11 12  1  0  0  0
 12  2  2  0  0  0
 12 13  1  0  0  0
 13 14  2  0  0  0
 13 49  1  0  0  0
 14 15  1  0  0  0
 14 50  1  0  0  0
 15 16  1  0  0  0
 16 17  2  0  0  0
 16 18  1  0  0  0
 18  1  1  0  0  0
 18 19  1  0  0  0
 18 51  1  0  0  0
 19 52  1  0  0  0
 19 53  1  0  0  0
 20 15  2  0  0  0
 20 54  1  0  0  0
 21 34  1  0  0  0
 21 10  1  0  0  0
 22 21  2  0  0  0
 23 22  1  0  0  0
 23 33  2  0  0  0
 24 23  1  0  0  0
 25 27  1  0  0  0
 25  5  1  0  0  0
 26 25  2  0  0  0
 27 55  1  0  0  0
 28  6  1  0  0  0
 28 56  1  0  0  0
 28 57  1  0  0  0
 28 58  1  0  0  0
 29  7  1  0  0  0
 29 59  1  0  0  0
 30 32  1  0  0  0
 31 30  1  0  0  0
 32 24  2  0  0  0
 32 60  1  0  0  0
 33 34  1  0  0  0
M  END
$$$$
