A1D8X
  CCTOOLS-0919241042

 25 26  0  0  1  0  0  0  0  0999 V2000
   -2.7450   -0.0630    0.0170 C   0  0  0  0  0
   -1.5320    2.0790   -0.4440 C   0  0  0  0  0
   -1.5650   -2.1300    0.2920 C   0  0  0  0  0
   -2.7540   -1.4270    0.2560 C   0  0  0  0  0
    0.9520    0.6070   -0.3670 C   0  0  0  0  0
   -0.3550   -0.1100   -0.1480 C   0  0  0  0  0
    1.5460    1.0970    0.9760 C   0  0  0  0  0
   -1.5440    0.5950   -0.1850 C   0  0  0  0  0
   -0.3660   -1.4710    0.0910 C   0  0  0  0  0
    3.0720   -0.1220   -0.1490 C   0  0  0  0  0
   -3.9080    0.6230   -0.0240 F   0  0  0  0  0
    1.9930   -0.3280   -0.8390 N   0  0  0  0  0
    4.2290   -0.8370   -0.3370 N   0  0  0  0  0
    2.9530    0.8580    0.7690 O   0  0  0  0  0
   -1.4560    2.6130    0.5030 H   0  0  0  0  0
   -0.6780    2.3320   -1.0730 H   0  0  0  0  0
   -2.4540    2.3670   -0.9500 H   0  0  0  0  0
   -1.5710   -3.1940    0.4780 H   0  0  0  0  0
   -3.6900   -1.9420    0.4140 H   0  0  0  0  0
    0.8280    1.4350   -1.0640 H   0  0  0  0  0
    1.3470    2.1580    1.1270 H   0  0  0  0  0
    1.1670    0.5070    1.8100 H   0  0  0  0  0
    0.5640   -2.0210    0.1200 H   0  0  0  0  0
    4.2650   -1.5330   -1.0110 H   0  0  0  0  0
    5.0110   -0.6450    0.2050 H   0  0  0  0  0
  1  4  1  0  0  0
  2  8  1  0  0  0
  2 15  1  0  0  0
  2 16  1  0  0  0
  2 17  1  0  0  0
  3 18  1  0  0  0
  4  3  2  0  0  0
  4 19  1  0  0  0
  5  6  1  0  0  0
  5 12  1  0  0  0
  5 20  1  0  0  0
  6  9  2  0  0  0
  7  5  1  0  0  0
  7 14  1  0  0  0
  7 21  1  0  0  0
  7 22  1  0  0  0
  8  1  2  0  0  0
  8  6  1  0  0  0
  9  3  1  0  0  0
  9 23  1  0  0  0
 10 13  1  0  0  0
 11  1  1  0  0  0
 12 10  2  0  0  0
 13 24  1  0  0  0
 13 25  1  0  0  0
 14 10  1  0  0  0
M  END
$$$$
