A1D8Y
  CCTOOLS-1115241517

 60 63  0  0  0  0  0  0  0  0999 V2000
   -4.3780    1.7210    1.5660 C   0  0  0  0  0
    0.9680    2.0680   -1.3910 C   0  0  0  0  0
    2.6630    0.8110   -0.2610 C   0  0  0  0  0
    6.3060    0.2970   -1.0320 C   0  0  0  0  0
    6.6940   -0.5110    0.0220 C   0  0  0  0  0
    5.7760   -0.8910    0.9840 C   0  0  0  0  0
   -5.7990   -3.9990   -0.9590 C   0  0  0  0  0
   -7.0440   -3.1120   -0.8850 C   0  0  0  0  0
   -8.1290   -3.8230   -0.0740 C   0  0  0  0  0
   -6.6910   -1.8080   -0.2170 C   0  0  0  0  0
   -6.2230   -1.6630    0.9870 N   0  0  0  0  0
   -6.0410   -0.4900    1.2340 O   0  0  0  0  0
   -6.3870    0.2550    0.1750 C   0  0  0  0  0
   -6.3210    1.6230    0.0770 N   0  0  0  0  0
   -5.8050    2.2150    1.3180 C   0  0  0  0  0
   -3.4930    2.1190    0.3820 C   0  0  0  0  0
   -2.0790    1.5760    0.5960 C   0  0  0  0  0
   -1.2250    2.0460   -0.4500 O   0  0  0  0  0
    0.0750    1.6520   -0.4080 C   0  0  0  0  0
    2.2810    1.6390   -1.3140 C   0  0  0  0  0
    4.0690    0.3500   -0.1620 C   0  0  0  0  0
    4.9990    0.7290   -1.1280 C   0  0  0  0  0
    8.3650   -1.0590    0.1380 S   0  0  0  0  0
    9.1960    0.2250    1.1130 C   0  0  0  0  0
    8.2850   -2.2720    0.8750 O   0  0  0  0  0
    8.8320   -1.0470   -1.2040 O   0  0  0  0  0
    4.4660   -0.4650    0.8970 C   0  0  0  0  0
    1.7850    0.4440    0.6640 N   0  0  0  0  0
    0.5270    0.8300    0.6150 C   0  0  0  0  0
   -4.0790    1.5300   -0.9050 C   0  0  0  0  0
   -5.5150    2.0300   -1.0810 C   0  0  0  0  0
   -6.7990   -0.5840   -0.7600 N   0  0  0  0  0
   -3.9900    2.1720    2.4790 H   0  0  0  0  0
   -4.3820    0.6360    1.6690 H   0  0  0  0  0
    0.6430    2.7070   -2.1990 H   0  0  0  0  0
    7.0290    0.5940   -1.7780 H   0  0  0  0  0
    6.0840   -1.5220    1.8040 H   0  0  0  0  0
   -6.0540   -4.9430   -1.4420 H   0  0  0  0  0
   -5.0260   -3.4930   -1.5360 H   0  0  0  0  0
   -5.4310   -4.1940    0.0480 H   0  0  0  0  0
   -7.4110   -2.9170   -1.8920 H   0  0  0  0  0
   -7.7610   -4.0190    0.9330 H   0  0  0  0  0
   -9.0160   -3.1910   -0.0210 H   0  0  0  0  0
   -8.3840   -4.7670   -0.5570 H   0  0  0  0  0
   -6.4420    1.9210    2.1530 H   0  0  0  0  0
   -5.8030    3.3010    1.2290 H   0  0  0  0  0
   -3.4580    3.2050    0.3020 H   0  0  0  0  0
   -1.6990    1.9210    1.5580 H   0  0  0  0  0
   -2.1020    0.4870    0.5840 H   0  0  0  0  0
    3.0010    1.9420   -2.0600 H   0  0  0  0  0
    4.6980    1.3610   -1.9510 H   0  0  0  0  0
   10.2470   -0.0360    1.2370 H   0  0  0  0  0
    9.1170    1.1810    0.5970 H   0  0  0  0  0
    8.7230    0.3000    2.0930 H   0  0  0  0  0
    3.7500   -0.7620    1.6490 H   0  0  0  0  0
   -0.1610    0.5040    1.3810 H   0  0  0  0  0
   -3.4770    1.8460   -1.7570 H   0  0  0  0  0
   -4.0780    0.4420   -0.8400 H   0  0  0  0  0
   -5.9400    1.6020   -1.9880 H   0  0  0  0  0
   -5.5140    3.1170   -1.1590 H   0  0  0  0  0
  1 15  1  0  0  0
  1 33  1  0  0  0
  1 34  1  0  0  0
  2 19  2  0  0  0
  2 35  1  0  0  0
  3 28  1  0  0  0
  4  5  2  0  0  0
  4 22  1  0  0  0
  4 36  1  0  0  0
  5  6  1  0  0  0
  6 27  2  0  0  0
  6 37  1  0  0  0
  7 38  1  0  0  0
  7 39  1  0  0  0
  7 40  1  0  0  0
  8  7  1  0  0  0
  8 41  1  0  0  0
  9  8  1  0  0  0
  9 42  1  0  0  0
  9 43  1  0  0  0
  9 44  1  0  0  0
 10  8  1  0  0  0
 10 11  2  0  0  0
 12 11  1  0  0  0
 13 12  1  0  0  0
 14 13  1  0  0  0
 15 14  1  0  0  0
 15 45  1  0  0  0
 15 46  1  0  0  0
 16  1  1  0  0  0
 16 47  1  0  0  0
 17 18  1  0  0  0
 17 16  1  0  0  0
 17 48  1  0  0  0
 17 49  1  0  0  0
 19 29  1  0  0  0
 19 18  1  0  0  0
 20  3  2  0  0  0
 20  2  1  0  0  0
 20 50  1  0  0  0
 21 27  1  0  0  0
 21  3  1  0  0  0
 22 21  2  0  0  0
 22 51  1  0  0  0
 23 25  2  0  0  0
 23  5  1  0  0  0
 24 23  1  0  0  0
 24 52  1  0  0  0
 24 53  1  0  0  0
 24 54  1  0  0  0
 26 23  2  0  0  0
 27 55  1  0  0  0
 28 29  2  0  0  0
 29 56  1  0  0  0
 30 16  1  0  0  0
 30 31  1  0  0  0
 30 57  1  0  0  0
 30 58  1  0  0  0
 31 14  1  0  0  0
 31 59  1  0  0  0
 31 60  1  0  0  0
 32 13  2  0  0  0
 32 10  1  0  0  0
M  END
$$$$
