A1H09
  CCTOOLS-0919241042

126128  0  0  1  0  0  0  0  0999 V2000
   17.5540    3.1980   -0.0670 C   0  0  0  0  0
   18.9310    3.2820   -0.4960 O   0  0  0  0  0
   19.1830    2.0520   -1.2100 C   0  0  0  0  0
   20.5860    1.7890   -1.2690 O   0  0  0  0  0
   18.4660    0.9610   -0.3830 C   0  0  0  0  0
   17.8790   -0.0160   -1.2440 O   0  0  0  0  0
   17.3700    1.7330    0.3860 C   0  0  0  0  0
   16.0730    1.2560    0.0230 O   0  0  0  0  0
   17.2980    4.1530    1.1000 C   0  0  0  0  0
   17.3590    5.5030    0.6340 O   0  0  0  0  0
    6.4930   -1.1680   -0.3850 O   0  0  0  0  0
    7.5690   -1.0560    0.5480 C   0  0  0  0  0
    9.2010   -1.8810   -1.0320 O   0  0  0  0  0
    9.9970   -0.5220    0.8010 C   0  0  0  0  0
    9.6650    0.5950    1.6280 O   0  0  0  0  0
   11.2970   -0.2300    0.0480 C   0  0  0  0  0
   11.6280   -1.3470   -0.7800 O   0  0  0  0  0
   12.4240    0.0120    1.0530 C   0  0  0  0  0
    8.8690   -0.7650   -0.2040 C   0  0  0  0  0
   13.6100    0.3990    0.3550 O   0  0  0  0  0
   14.9970    0.7340    1.1000 P   0  0  0  0  0
   15.5560   -0.5950    1.8170 O   0  0  0  0  0
   14.7690    1.7840    2.1180 O   0  0  0  0  0
    3.8360   -3.1200    0.9370 C   0  0  0  0  0
    5.2280   -2.7560    0.8160 O   0  0  0  0  0
    5.2270   -1.4410    0.2180 C   0  0  0  0  0
    4.1200   -1.4990   -0.8590 C   0  0  0  0  0
    3.4160   -0.2570   -0.9200 O   0  0  0  0  0
    3.1840   -2.6290   -0.3740 C   0  0  0  0  0
    1.8730   -2.1190   -0.1220 O   0  0  0  0  0
    3.6900   -4.6370    1.0690 C   0  0  0  0  0
    4.1940   -5.0560    2.3390 O   0  0  0  0  0
   -7.7410    0.2410   -0.0340 O   0  0  0  0  0
   -6.8210   -0.6440   -0.6770 C   0  0  0  0  0
   -5.0340    0.9820   -0.6490 O   0  0  0  0  0
   -4.4280   -1.3520   -0.8000 C   0  0  0  0  0
   -4.7930   -2.6620   -0.3600 O   0  0  0  0  0
   -3.0060   -1.0360   -0.3330 C   0  0  0  0  0
   -2.6410    0.2740   -0.7720 O   0  0  0  0  0
   -2.0350   -2.0610   -0.9230 C   0  0  0  0  0
   -5.3990   -0.3270   -0.2100 C   0  0  0  0  0
   -0.7270   -1.8360   -0.3950 O   0  0  0  0  0
    0.5480   -2.7330   -0.8000 P   0  0  0  0  0
    0.3290   -4.2420   -0.2810 O   0  0  0  0  0
    0.7020   -2.7350   -2.2720 O   0  0  0  0  0
  -10.7270    0.5930   -1.9280 C   0  0  0  0  0
   -9.3070    0.3600   -1.7940 O   0  0  0  0  0
   -9.1050    0.0280   -0.4030 C   0  0  0  0  0
  -10.0290    0.9950    0.3710 C   0  0  0  0  0
  -10.6070    0.3370    1.5010 O   0  0  0  0  0
  -11.1200    1.3750   -0.6550 C   0  0  0  0  0
  -12.4080    0.9630   -0.1920 O   0  0  0  0  0
  -11.0170    1.4280   -3.1770 C   0  0  0  0  0
  -10.7560    0.6460   -4.3440 O   0  0  0  0  0
  -22.0740   -0.1850    1.5590 O   0  0  0  0  0
  -21.1110    0.8330    1.2790 C   0  0  0  0  0
  -19.4000   -0.2320    2.6120 O   0  0  0  0  0
  -18.6880    1.2870    0.8720 C   0  0  0  0  0
  -18.9960    1.7450   -0.4470 O   0  0  0  0  0
  -17.2840    0.6800    0.8860 C   0  0  0  0  0
  -16.9770    0.2220    2.2050 O   0  0  0  0  0
  -16.2650    1.7410    0.4650 C   0  0  0  0  0
  -19.7070    0.2260    1.2930 C   0  0  0  0  0
  -14.9700    1.1450    0.3660 O   0  0  0  0  0
  -13.6550    1.9720   -0.0560 P   0  0  0  0  0
  -13.3310    3.0770    1.0690 O   0  0  0  0  0
  -13.8890    2.6430   -1.3550 O   0  0  0  0  0
   16.8840    3.4260   -0.8970 H   0  0  0  0  0
   18.7640    2.1040   -2.2150 H   0  0  0  0  0
   21.0940    2.4670   -1.7350 H   0  0  0  0  0
   19.1610    0.4910    0.3130 H   0  0  0  0  0
   18.5180   -0.4890   -1.7950 H   0  0  0  0  0
   17.5230    1.6440    1.4620 H   0  0  0  0  0
   16.3110    3.9580    1.5200 H   0  0  0  0  0
   18.0560    4.0000    1.8680 H   0  0  0  0  0
   17.2060    6.1640    1.3220 H   0  0  0  0  0
    7.3630   -0.2440    1.2450 H   0  0  0  0  0
    7.6700   -1.9910    1.0990 H   0  0  0  0  0
    9.3320   -2.7070   -0.5450 H   0  0  0  0  0
   10.1270   -1.4080    1.4210 H   0  0  0  0  0
    9.5340    1.4200    1.1420 H   0  0  0  0  0
   11.1660    0.6560   -0.5730 H   0  0  0  0  0
   11.7590   -2.1720   -0.2930 H   0  0  0  0  0
   12.1330    0.8060    1.7410 H   0  0  0  0  0
   12.6150   -0.9030    1.6140 H   0  0  0  0  0
    8.7380    0.1220   -0.8250 H   0  0  0  0  0
   15.7280   -1.3270    1.2090 H   0  0  0  0  0
    3.3860   -2.6200    1.7950 H   0  0  0  0  0
    4.9920   -0.6840    0.9650 H   0  0  0  0  0
    4.5460   -1.7440   -1.8320 H   0  0  0  0  0
    3.9700    0.4980   -1.1610 H   0  0  0  0  0
    3.1470   -3.4350   -1.1070 H   0  0  0  0  0
    2.6370   -4.9090    0.9880 H   0  0  0  0  0
    4.2530   -5.1270    0.2750 H   0  0  0  0  0
    4.1330   -6.0090    2.4920 H   0  0  0  0  0
   -7.0670   -1.6740   -0.4190 H   0  0  0  0  0
   -6.8860   -0.5140   -1.7570 H   0  0  0  0  0
   -5.0500    1.0940   -1.6100 H   0  0  0  0  0
   -4.4710   -1.3090   -1.8880 H   0  0  0  0  0
   -4.7770   -2.7740    0.6000 H   0  0  0  0  0
   -2.9630   -1.0790    0.7560 H   0  0  0  0  0
   -2.6570    0.3850   -1.7320 H   0  0  0  0  0
   -2.3650   -3.0660   -0.6610 H   0  0  0  0  0
   -2.0120   -1.9570   -2.0070 H   0  0  0  0  0
   -5.3560   -0.3710    0.8790 H   0  0  0  0  0
    0.2200   -4.3160    0.6770 H   0  0  0  0  0
  -11.2640   -0.3550   -1.9720 H   0  0  0  0  0
   -9.3920   -1.0060   -0.2150 H   0  0  0  0  0
   -9.4760    1.8800    0.6870 H   0  0  0  0  0
   -9.9600    0.0250    2.1480 H   0  0  0  0  0
  -11.1090    2.4470   -0.8470 H   0  0  0  0  0
  -12.0620    1.7370   -3.1720 H   0  0  0  0  0
  -10.3770    2.3100   -3.1800 H   0  0  0  0  0
  -10.9190    1.1130   -5.1750 H   0  0  0  0  0
  -22.9880    0.1290    1.5660 H   0  0  0  0  0
  -21.3120    1.2620    0.2970 H   0  0  0  0  0
  -21.1780    1.6140    2.0360 H   0  0  0  0  0
  -19.4170    0.4630    3.2830 H   0  0  0  0  0
  -18.7290    2.1260    1.5660 H   0  0  0  0  0
  -18.9780    1.0500   -1.1180 H   0  0  0  0  0
  -17.2440   -0.1590    0.1920 H   0  0  0  0  0
  -16.9940    0.9170    2.8770 H   0  0  0  0  0
  -16.5500    2.1540   -0.5030 H   0  0  0  0  0
  -16.2430    2.5380    1.2080 H   0  0  0  0  0
  -19.6670   -0.6130    0.5990 H   0  0  0  0  0
  -13.1660    2.7080    1.9470 H   0  0  0  0  0
  1  7  1  0  0  0
  1 68  1  0  0  0
  2  1  1  0  0  0
  2  3  1  0  0  0
  3  4  1  0  0  0
  3  5  1  0  0  0
  3 69  1  0  0  0
  4 70  1  0  0  0
  5  7  1  0  0  0
  5 71  1  0  0  0
  6  5  1  0  0  0
  6 72  1  0  0  0
  7  8  1  0  0  0
  7 73  1  0  0  0
  8 21  1  0  0  0
  9  1  1  0  0  0
  9 10  1  0  0  0
  9 74  1  0  0  0
  9 75  1  0  0  0
 10 76  1  0  0  0
 11 26  1  0  0  0
 12 11  1  0  0  0
 12 78  1  0  0  0
 12 77  1  0  0  0
 13 19  1  0  0  0
 13 79  1  0  0  0
 14 16  1  0  0  0
 14 15  1  0  0  0
 14 80  1  0  0  0
 15 81  1  0  0  0
 16 82  1  0  0  0
 17 16  1  0  0  0
 17 83  1  0  0  0
 18 20  1  0  0  0
 18 16  1  0  0  0
 18 84  1  0  0  0
 18 85  1  0  0  0
 19 14  1  0  0  0
 19 12  1  0  0  0
 19 86  1  0  0  0
 21 23  2  0  0  0
 21 20  1  0  0  0
 21 22  1  0  0  0
 22 87  1  0  0  0
 24 29  1  0  0  0
 24 88  1  0  0  0
 25 24  1  0  0  0
 25 26  1  0  0  0
 26 27  1  0  0  0
 26 89  1  0  0  0
 27 28  1  0  0  0
 27 90  1  0  0  0
 28 91  1  0  0  0
 29 27  1  0  0  0
 29 30  1  0  0  0
 29 92  1  0  0  0
 30 43  1  0  0  0
 31 32  1  0  0  0
 31 24  1  0  0  0
 31 93  1  0  0  0
 31 94  1  0  0  0
 32 95  1  0  0  0
 34 33  1  0  0  0
 34 41  1  0  0  0
 34 97  1  0  0  0
 34 96  1  0  0  0
 35 98  1  0  0  0
 36 41  1  0  0  0
 36 37  1  0  0  0
 36 99  1  0  0  0
 37100  1  0  0  0
 38 36  1  0  0  0
 38101  1  0  0  0
 39 38  1  0  0  0
 39102  1  0  0  0
 40 38  1  0  0  0
 40103  1  0  0  0
 40104  1  0  0  0
 41 35  1  0  0  0
 41105  1  0  0  0
 42 40  1  0  0  0
 43 42  1  0  0  0
 43 44  1  0  0  0
 44106  1  0  0  0
 45 43  2  0  0  0
 46 51  1  0  0  0
 46107  1  0  0  0
 47 46  1  0  0  0
 47 48  1  0  0  0
 48 33  1  0  0  0
 48 49  1  0  0  0
 48108  1  0  0  0
 49109  1  0  0  0
 50 49  1  0  0  0
 50110  1  0  0  0
 51 52  1  0  0  0
 51 49  1  0  0  0
 51111  1  0  0  0
 52 65  1  0  0  0
 53 54  1  0  0  0
 53 46  1  0  0  0
 53112  1  0  0  0
 53113  1  0  0  0
 54114  1  0  0  0
 55 56  1  0  0  0
 55115  1  0  0  0
 56 63  1  0  0  0
 56117  1  0  0  0
 56116  1  0  0  0
 57118  1  0  0  0
 58 63  1  0  0  0
 58 60  1  0  0  0
 58119  1  0  0  0
 59 58  1  0  0  0
 59120  1  0  0  0
 60 61  1  0  0  0
 60121  1  0  0  0
 61122  1  0  0  0
 62 60  1  0  0  0
 62123  1  0  0  0
 62124  1  0  0  0
 63 57  1  0  0  0
 63125  1  0  0  0
 64 62  1  0  0  0
 65 66  1  0  0  0
 65 64  1  0  0  0
 66126  1  0  0  0
 67 65  2  0  0  0
M  END
$$$$
