A1H1A
  CCTOOLS-0919241043

 85 86  0  0  1  0  0  0  0  0999 V2000
  -11.2190    1.5310    0.4590 C   0  0  0  0  0
  -12.5280    1.0670    0.8530 O   0  0  0  0  0
  -12.3160   -0.2520    1.4010 C   0  0  0  0  0
  -13.5340   -1.0000    1.3850 O   0  0  0  0  0
  -11.2730   -0.9050    0.4670 C   0  0  0  0  0
  -10.3660   -1.7140    1.2170 O   0  0  0  0  0
  -10.5340    0.2960   -0.1670 C   0  0  0  0  0
   -9.1460    0.2660    0.1720 O   0  0  0  0  0
  -11.3370    2.6540   -0.5730 C   0  0  0  0  0
  -11.8650    3.8240    0.0560 O   0  0  0  0  0
    0.7300   -0.3370    0.4790 O   0  0  0  0  0
   -0.3520   -0.3080   -0.4540 C   0  0  0  0  0
   -1.8240   -1.5410    1.0140 O   0  0  0  0  0
   -2.8350   -0.1520   -0.6860 C   0  0  0  0  0
   -2.6910    1.0810   -1.3940 O   0  0  0  0  0
   -4.1630   -0.1520    0.0740 C   0  0  0  0  0
   -4.3060   -1.3850    0.7820 O   0  0  0  0  0
   -5.3170    0.0040   -0.9180 C   0  0  0  0  0
   -1.6800   -0.3080    0.3060 C   0  0  0  0  0
   -6.5480    0.1210   -0.2010 O   0  0  0  0  0
   -7.9730    0.2990   -0.9290 P   0  0  0  0  0
   -8.0060    1.7100   -1.7050 O   0  0  0  0  0
   -8.1740   -0.8010   -1.8980 O   0  0  0  0  0
    3.6670   -1.6890   -0.9940 C   0  0  0  0  0
    2.2340   -1.5690   -0.8570 O   0  0  0  0  0
    2.0230   -0.3390   -0.1300 C   0  0  0  0  0
    3.1270   -0.3240    0.9510 C   0  0  0  0  0
    3.6170    1.0030    1.1470 O   0  0  0  0  0
    4.2330   -1.2330    0.3690 C   0  0  0  0  0
    5.4430   -0.4940    0.1870 O   0  0  0  0  0
    4.0560   -3.1420   -1.2730 C   0  0  0  0  0
    3.5590   -3.5300   -2.5550 O   0  0  0  0  0
   14.8090    2.4770   -0.9340 O   0  0  0  0  0
   14.0320    1.5000   -0.2390 C   0  0  0  0  0
   12.2050    3.0340    0.1470 O   0  0  0  0  0
   11.7150    0.6680    0.1840 C   0  0  0  0  0
   12.0540   -0.5830   -0.4180 O   0  0  0  0  0
   10.2270    0.9510   -0.0320 C   0  0  0  0  0
    9.8880    2.2020    0.5700 O   0  0  0  0  0
    9.3970   -0.1640    0.6070 C   0  0  0  0  0
   12.5450    1.7830   -0.4550 C   0  0  0  0  0
    8.0150    0.0380    0.3050 O   0  0  0  0  0
    6.8520   -0.9500    0.8190 P   0  0  0  0  0
    6.7650   -0.8870    2.4250 O   0  0  0  0  0
    7.1580   -2.3350    0.3960 O   0  0  0  0  0
  -10.6600    1.8730    1.3300 H   0  0  0  0  0
  -11.9270   -0.1830    2.4170 H   0  0  0  0  0
  -14.2410   -0.6100    1.9170 H   0  0  0  0  0
  -11.7670   -1.4980   -0.3020 H   0  0  0  0  0
  -10.7880   -2.4490    1.6840 H   0  0  0  0  0
  -10.6630    0.2950   -1.2500 H   0  0  0  0  0
  -10.3520    2.8750   -0.9840 H   0  0  0  0  0
  -12.0040    2.3410   -1.3760 H   0  0  0  0  0
  -11.9670    4.5790   -0.5410 H   0  0  0  0  0
   -0.2820    0.5930   -1.0630 H   0  0  0  0  0
   -0.3010   -1.1870   -1.0970 H   0  0  0  0  0
   -1.8200   -2.3240    0.4460 H   0  0  0  0  0
   -2.8200   -0.9810   -1.3930 H   0  0  0  0  0
   -2.6950    1.8630   -0.8260 H   0  0  0  0  0
   -4.1770    0.6770    0.7810 H   0  0  0  0  0
   -4.3020   -2.1680    0.2130 H   0  0  0  0  0
   -5.1610    0.8990   -1.5200 H   0  0  0  0  0
   -5.3580   -0.8690   -1.5690 H   0  0  0  0  0
   -1.6940    0.5210    1.0130 H   0  0  0  0  0
   -7.8800    2.4780   -1.1310 H   0  0  0  0  0
    4.0280   -1.0390   -1.7910 H   0  0  0  0  0
    2.1290    0.5180   -0.7950 H   0  0  0  0  0
    2.7500   -0.7340    1.8880 H   0  0  0  0  0
    2.9470    1.6290    1.4550 H   0  0  0  0  0
    4.4050   -2.0920    1.0180 H   0  0  0  0  0
    5.1420   -3.2370   -1.2590 H   0  0  0  0  0
    3.6260   -3.7870   -0.5060 H   0  0  0  0  0
    3.7690   -4.4420   -2.7980 H   0  0  0  0  0
   15.7650    2.3590   -0.8410 H   0  0  0  0  0
   14.2720    0.5070   -0.6190 H   0  0  0  0  0
   14.2600    1.5450    0.8260 H   0  0  0  0  0
   12.3670    3.0680    1.1000 H   0  0  0  0  0
   11.9250    0.6250    1.2530 H   0  0  0  0  0
   11.8930   -0.6170   -1.3710 H   0  0  0  0  0
   10.0170    0.9930   -1.1010 H   0  0  0  0  0
   10.0490    2.2360    1.5230 H   0  0  0  0  0
    9.7180   -1.1280    0.2110 H   0  0  0  0  0
    9.5400   -0.1500    1.6870 H   0  0  0  0  0
   12.3340    1.8260   -1.5240 H   0  0  0  0  0
    6.5670   -0.0070    2.7740 H   0  0  0  0  0
  1  7  1  0  0  0
  1 46  1  0  0  0
  2  1  1  0  0  0
  2  3  1  0  0  0
  3  4  1  0  0  0
  3  5  1  0  0  0
  3 47  1  0  0  0
  4 48  1  0  0  0
  5 49  1  0  0  0
  6  5  1  0  0  0
  6 50  1  0  0  0
  7  5  1  0  0  0
  7  8  1  0  0  0
  7 51  1  0  0  0
  8 21  1  0  0  0
  9 10  1  0  0  0
  9  1  1  0  0  0
  9 52  1  0  0  0
  9 53  1  0  0  0
 10 54  1  0  0  0
 12 11  1  0  0  0
 12 19  1  0  0  0
 12 56  1  0  0  0
 12 55  1  0  0  0
 13 57  1  0  0  0
 14 19  1  0  0  0
 14 15  1  0  0  0
 14 58  1  0  0  0
 15 59  1  0  0  0
 16 14  1  0  0  0
 16 60  1  0  0  0
 17 16  1  0  0  0
 17 61  1  0  0  0
 18 16  1  0  0  0
 18 62  1  0  0  0
 18 63  1  0  0  0
 19 13  1  0  0  0
 19 64  1  0  0  0
 20 18  1  0  0  0
 21 20  1  0  0  0
 21 22  1  0  0  0
 22 65  1  0  0  0
 23 21  2  0  0  0
 24 25  1  0  0  0
 24 29  1  0  0  0
 24 66  1  0  0  0
 25 26  1  0  0  0
 26 11  1  0  0  0
 26 27  1  0  0  0
 26 67  1  0  0  0
 27 68  1  0  0  0
 28 27  1  0  0  0
 28 69  1  0  0  0
 29 30  1  0  0  0
 29 27  1  0  0  0
 29 70  1  0  0  0
 30 43  1  0  0  0
 31 24  1  0  0  0
 31 71  1  0  0  0
 31 72  1  0  0  0
 32 31  1  0  0  0
 32 73  1  0  0  0
 33 34  1  0  0  0
 33 74  1  0  0  0
 34 76  1  0  0  0
 34 75  1  0  0  0
 35 41  1  0  0  0
 35 77  1  0  0  0
 36 37  1  0  0  0
 36 78  1  0  0  0
 37 79  1  0  0  0
 38 36  1  0  0  0
 38 39  1  0  0  0
 38 80  1  0  0  0
 39 81  1  0  0  0
 40 38  1  0  0  0
 40 82  1  0  0  0
 40 83  1  0  0  0
 41 34  1  0  0  0
 41 36  1  0  0  0
 41 84  1  0  0  0
 42 40  1  0  0  0
 43 42  1  0  0  0
 43 44  1  0  0  0
 44 85  1  0  0  0
 45 43  2  0  0  0
M  END
$$$$
