A1H66
  CCTOOLS-0919241043

 66 68  0  0  1  0  0  0  0  0999 V2000
    9.7960    1.4590   -0.0320 C   0  0  0  0  0
    8.3200    1.8270   -0.1970 C   0  0  0  0  0
    7.4550    0.5920    0.0630 C   0  0  0  0  0
    5.9790    0.9600   -0.1020 C   0  0  0  0  0
    5.1130   -0.2750    0.1570 C   0  0  0  0  0
    3.6370    0.0930   -0.0080 C   0  0  0  0  0
    2.7720   -1.1410    0.2510 C   0  0  0  0  0
    3.1380   -2.2400   -0.7480 C   0  0  0  0  0
    3.0160   -1.6450    1.6750 C   0  0  0  0  0
    1.3180   -0.7790    0.0890 C   0  0  0  0  0
    0.3430   -1.7370    0.2800 C   0  0  0  0  0
   -1.0020   -1.4110    0.1310 C   0  0  0  0  0
   -3.0810    1.6380    0.2070 C   0  0  0  0  0
   -4.5620    1.8900    0.2180 C   0  0  0  0  0
   -5.4580    0.9640    0.0840 C   0  0  0  0  0
   -5.1440   -0.4940   -0.1040 C   0  0  0  0  0
   -3.6970   -0.7610    0.3130 C   0  0  0  0  0
   -3.2620   -2.1610   -0.1220 C   0  0  0  0  0
   -5.0360    3.3090    0.3960 C   0  0  0  0  0
   -0.3760    0.8440   -0.3990 C   0  0  0  0  0
    0.9620    0.5130   -0.2470 C   0  0  0  0  0
   -1.3600   -0.1200   -0.2160 C   0  0  0  0  0
   -2.8020    0.2630   -0.4010 C   0  0  0  0  0
   -4.2000   -3.2050    0.4860 C   0  0  0  0  0
   -3.2990   -2.2610   -1.6490 C   0  0  0  0  0
   -1.9290   -2.3820    0.3430 O   0  0  0  0  0
   -6.4640    3.3410    0.3800 O   0  0  0  0  0
   -0.7260    2.1150   -0.7300 O   0  0  0  0  0
   10.0570    0.6760   -0.7440 H   0  0  0  0  0
   10.4130    2.3390   -0.2160 H   0  0  0  0  0
    9.9700    1.1000    0.9830 H   0  0  0  0  0
    8.0590    2.6100    0.5150 H   0  0  0  0  0
    8.1460    2.1860   -1.2110 H   0  0  0  0  0
    7.7160   -0.1900   -0.6490 H   0  0  0  0  0
    7.6280    0.2340    1.0770 H   0  0  0  0  0
    5.7180    1.7430    0.6100 H   0  0  0  0  0
    5.8050    1.3190   -1.1170 H   0  0  0  0  0
    5.3740   -1.0570   -0.5550 H   0  0  0  0  0
    5.2870   -0.6330    1.1710 H   0  0  0  0  0
    3.3760    0.8760    0.7040 H   0  0  0  0  0
    3.4640    0.4520   -1.0230 H   0  0  0  0  0
    4.1900   -2.5020   -0.6310 H   0  0  0  0  0
    2.5220   -3.1200   -0.5640 H   0  0  0  0  0
    2.9650   -1.8810   -1.7630 H   0  0  0  0  0
    2.7540   -0.8620    2.3870 H   0  0  0  0  0
    2.3990   -2.5250    1.8600 H   0  0  0  0  0
    4.0670   -1.9070    1.7930 H   0  0  0  0  0
    0.6260   -2.7440    0.5470 H   0  0  0  0  0
   -2.5860    2.4050   -0.3890 H   0  0  0  0  0
   -2.6990    1.6690    1.2270 H   0  0  0  0  0
   -6.4970    1.2580    0.1100 H   0  0  0  0  0
   -5.8160   -1.0930    0.5100 H   0  0  0  0  0
   -5.2740   -0.7610   -1.1530 H   0  0  0  0  0
   -3.5980   -0.6470    1.3930 H   0  0  0  0  0
   -4.6750    3.6960    1.3490 H   0  0  0  0  0
   -4.6500    3.9260   -0.4160 H   0  0  0  0  0
    1.7240    1.2650   -0.3900 H   0  0  0  0  0
   -3.0410    0.2760   -1.4640 H   0  0  0  0  0
   -5.2190   -3.0210    0.1450 H   0  0  0  0  0
   -3.8870   -4.2010    0.1740 H   0  0  0  0  0
   -4.1630   -3.1370    1.5730 H   0  0  0  0  0
   -2.6220   -1.5230   -2.0780 H   0  0  0  0  0
   -2.9880   -3.2600   -1.9550 H   0  0  0  0  0
   -4.3130   -2.0720   -2.0000 H   0  0  0  0  0
   -6.8400    4.2250    0.4890 H   0  0  0  0  0
   -0.7810    2.2720   -1.6820 H   0  0  0  0  0
  1 29  1  0  0  0
  1 30  1  0  0  0
  1 31  1  0  0  0
  2  1  1  0  0  0
  2 32  1  0  0  0
  2 33  1  0  0  0
  3  4  1  0  0  0
  3  2  1  0  0  0
  3 34  1  0  0  0
  3 35  1  0  0  0
  4 36  1  0  0  0
  4 37  1  0  0  0
  5  4  1  0  0  0
  5  6  1  0  0  0
  5 38  1  0  0  0
  5 39  1  0  0  0
  6 40  1  0  0  0
  6 41  1  0  0  0
  7  6  1  0  0  0
  7  8  1  0  0  0
  7 10  1  0  0  0
  8 42  1  0  0  0
  8 43  1  0  0  0
  8 44  1  0  0  0
  9  7  1  0  0  0
  9 45  1  0  0  0
  9 46  1  0  0  0
  9 47  1  0  0  0
 10 21  1  0  0  0
 11 10  2  0  0  0
 11 12  1  0  0  0
 11 48  1  0  0  0
 12 22  2  0  0  0
 13 14  1  0  0  0
 13 49  1  0  0  0
 13 50  1  0  0  0
 14 19  1  0  0  0
 15 14  2  0  0  0
 15 51  1  0  0  0
 16 15  1  0  0  0
 16 52  1  0  0  0
 16 53  1  0  0  0
 17 23  1  0  0  0
 17 16  1  0  0  0
 17 54  1  0  0  0
 18 17  1  0  0  0
 19 27  1  0  0  0
 19 55  1  0  0  0
 19 56  1  0  0  0
 20 28  1  0  0  0
 21 20  2  0  0  0
 21 57  1  0  0  0
 22 20  1  0  0  0
 22 23  1  0  0  0
 23 13  1  0  0  0
 23 58  1  0  0  0
 24 18  1  0  0  0
 24 59  1  0  0  0
 24 60  1  0  0  0
 24 61  1  0  0  0
 25 18  1  0  0  0
 25 62  1  0  0  0
 25 63  1  0  0  0
 25 64  1  0  0  0
 26 18  1  0  0  0
 26 12  1  0  0  0
 27 65  1  0  0  0
 28 66  1  0  0  0
M  END
$$$$
