A1H8F
  CCTOOLS-0919241043

 47 49  0  0  0  0  0  0  0  0999 V2000
    8.6770    0.7000    0.3080 C   0  0  0  0  0
    7.2300    1.1040    0.5960 C   0  0  0  0  0
    6.3000    0.0210    0.1120 C   0  0  0  0  0
   -4.6330    2.1660   -0.6510 C   0  0  0  0  0
   -0.1050   -0.0240   -0.9280 C   0  0  0  0  0
    9.6210    1.7990    0.7990 C   0  0  0  0  0
    4.0640   -0.8920   -0.2080 C   0  0  0  0  0
    4.9680    0.1600    0.2620 N   0  0  0  0  0
    2.6170   -0.4880    0.0810 C   0  0  0  0  0
   -0.6340   -2.3270   -0.3600 C   0  0  0  0  0
   -1.9870   -2.0230    0.2970 C   0  0  0  0  0
   -1.5670    0.2620   -0.6780 C   0  0  0  0  0
    6.7500   -0.9750   -0.4120 O   0  0  0  0  0
   -3.5520    1.2900   -0.5810 C   0  0  0  0  0
    1.6730   -1.5880   -0.4110 C   0  0  0  0  0
   -5.9970    0.4310    0.3550 C   0  0  0  0  0
   -5.8460    1.7040   -0.1720 C   0  0  0  0  0
   -4.9490   -0.4540    0.4350 C   0  0  0  0  0
   -3.7110   -0.0130   -0.0410 C   0  0  0  0  0
   -2.4100   -0.6390   -0.1250 C   0  0  0  0  0
   -2.2430    1.4190   -0.9550 N   0  0  0  0  0
    0.2830   -1.2000   -0.1330 N   0  0  0  0  0
   -7.5580   -0.0610    0.9320 CL  0  0  0  0  0
    8.9040   -0.2320    0.8250 H   0  0  0  0  0
    8.8080    0.5620   -0.7660 H   0  0  0  0  0
    7.0980    1.2420    1.6700 H   0  0  0  0  0
    7.0020    2.0360    0.0790 H   0  0  0  0  0
   -4.5270    3.1620   -1.0550 H   0  0  0  0  0
    0.0520   -0.2290   -1.9870 H   0  0  0  0  0
    0.4930    0.8360   -0.6270 H   0  0  0  0  0
   10.6520    1.5120    0.5930 H   0  0  0  0  0
    9.3940    2.7310    0.2820 H   0  0  0  0  0
    9.4900    1.9380    1.8720 H   0  0  0  0  0
    4.1950   -1.0310   -1.2810 H   0  0  0  0  0
    4.2910   -1.8240    0.3090 H   0  0  0  0  0
    4.6070    0.9570    0.6820 H   0  0  0  0  0
    2.4850   -0.3500    1.1540 H   0  0  0  0  0
    2.3890    0.4440   -0.4370 H   0  0  0  0  0
   -0.2120   -3.2320    0.0770 H   0  0  0  0  0
   -0.7740   -2.4720   -1.4310 H   0  0  0  0  0
   -2.7280   -2.7520   -0.0330 H   0  0  0  0  0
   -1.8870   -2.0640    1.3820 H   0  0  0  0  0
    1.8040   -1.7260   -1.4840 H   0  0  0  0  0
    1.9000   -2.5200    0.1060 H   0  0  0  0  0
   -6.7050    2.3570   -0.2110 H   0  0  0  0  0
   -5.0760   -1.4440    0.8480 H   0  0  0  0  0
   -1.8530    2.2120   -1.3550 H   0  0  0  0  0
  1 24  1  0  0  0
  1 25  1  0  0  0
  2  1  1  0  0  0
  2 26  1  0  0  0
  2 27  1  0  0  0
  3  2  1  0  0  0
  4 14  1  0  0  0
  4 17  2  0  0  0
  4 28  1  0  0  0
  5 12  1  0  0  0
  5 22  1  0  0  0
  5 29  1  0  0  0
  5 30  1  0  0  0
  6  1  1  0  0  0
  6 31  1  0  0  0
  6 32  1  0  0  0
  6 33  1  0  0  0
  7  9  1  0  0  0
  7  8  1  0  0  0
  7 34  1  0  0  0
  7 35  1  0  0  0
  8  3  1  0  0  0
  8 36  1  0  0  0
  9 37  1  0  0  0
  9 38  1  0  0  0
 10 11  1  0  0  0
 10 39  1  0  0  0
 10 40  1  0  0  0
 11 41  1  0  0  0
 11 42  1  0  0  0
 12 20  2  0  0  0
 13  3  2  0  0  0
 14 19  2  0  0  0
 15 22  1  0  0  0
 15  9  1  0  0  0
 15 43  1  0  0  0
 15 44  1  0  0  0
 16 18  2  0  0  0
 16 23  1  0  0  0
 17 16  1  0  0  0
 17 45  1  0  0  0
 18 46  1  0  0  0
 19 18  1  0  0  0
 20 19  1  0  0  0
 20 11  1  0  0  0
 21 12  1  0  0  0
 21 14  1  0  0  0
 21 47  1  0  0  0
 22 10  1  0  0  0
M  END
$$$$
