A1LVW
  CCTOOLS-0919241043

 53 56  0  0  0  0  0  0  0  0999 V2000
   -1.2110    0.1500   -0.4020 C   0  0  0  0  0
    1.2110    0.1500   -0.4050 C   0  0  0  0  0
   -2.4350    1.0360   -0.1670 C   0  0  0  0  0
    2.4360    1.0370   -0.1730 C   0  0  0  0  0
   -0.0020    1.8890   -1.5740 C   0  0  0  0  0
   -4.8840    0.7910    0.0490 C   0  0  0  0  0
    6.0650    0.0130    0.0560 C   0  0  0  0  0
    7.3080    0.6580    0.2630 C   0  0  0  0  0
   -5.0070    2.1600    0.2340 C   0  0  0  0  0
    5.0080    2.1610    0.2210 C   0  0  0  0  0
   -6.0240   -1.3780   -0.1150 C   0  0  0  0  0
    6.0240   -1.3770   -0.1220 C   0  0  0  0  0
   -6.2640    2.7170    0.4250 C   0  0  0  0  0
    6.2650    2.7180    0.4150 C   0  0  0  0  0
   -8.4830   -0.1140    0.2810 C   0  0  0  0  0
    7.1820   -2.0940   -0.0980 C   0  0  0  0  0
    4.8850    0.7930    0.0380 C   0  0  0  0  0
   -6.0650    0.0120    0.0640 C   0  0  0  0  0
   -7.3080    0.6570    0.2650 C   0  0  0  0  0
    8.4820   -0.1140    0.2870 C   0  0  0  0  0
   -7.1820   -2.0950   -0.0930 C   0  0  0  0  0
   -8.4090   -1.4630    0.1030 C   0  0  0  0  0
    8.4090   -1.4620    0.1020 C   0  0  0  0  0
   -0.0000    0.9820   -0.4190 N   0  0  0  0  0
   -3.6430    0.2060   -0.1490 N   0  0  0  0  0
    3.6430    0.2070   -0.1580 N   0  0  0  0  0
   -7.3530    1.9840    0.4370 N   0  0  0  0  0
    7.3530    1.9840    0.4350 N   0  0  0  0  0
   -9.8640   -2.4090    0.1250 CL  0  0  0  0  0
    9.8630   -2.4100    0.1330 CL  0  0  0  0  0
   -1.1350   -0.5860    0.4000 H   0  0  0  0  0
   -1.3120   -0.3640   -1.3580 H   0  0  0  0  0
    1.3100   -0.3640   -1.3610 H   0  0  0  0  0
    1.1370   -0.5850    0.3970 H   0  0  0  0  0
   -2.3340    1.5500    0.7890 H   0  0  0  0  0
   -2.5110    1.7710   -0.9680 H   0  0  0  0  0
    2.5090    1.7720   -0.9740 H   0  0  0  0  0
    2.3360    1.5500    0.7840 H   0  0  0  0  0
    0.0330    1.3060   -2.4940 H   0  0  0  0  0
   -0.9090    2.4930   -1.5610 H   0  0  0  0  0
    0.8700    2.5420   -1.5250 H   0  0  0  0  0
   -4.1300    2.7890    0.2300 H   0  0  0  0  0
    4.1310    2.7910    0.2140 H   0  0  0  0  0
   -5.0790   -1.8780   -0.2690 H   0  0  0  0  0
    5.0800   -1.8770   -0.2770 H   0  0  0  0  0
   -6.3490    3.7840    0.5690 H   0  0  0  0  0
    6.3500    3.7860    0.5570 H   0  0  0  0  0
   -9.4410    0.3610    0.4330 H   0  0  0  0  0
    7.1500   -3.1650   -0.2350 H   0  0  0  0  0
    9.4400    0.3610    0.4400 H   0  0  0  0  0
   -7.1500   -3.1650   -0.2310 H   0  0  0  0  0
   -3.5740   -0.7530   -0.2770 H   0  0  0  0  0
    3.5740   -0.7520   -0.2860 H   0  0  0  0  0
  1  3  1  0  0  0
  1 31  1  0  0  0
  1 32  1  0  0  0
  2 33  1  0  0  0
  2 34  1  0  0  0
  3 25  1  0  0  0
  3 35  1  0  0  0
  3 36  1  0  0  0
  4  2  1  0  0  0
  4 37  1  0  0  0
  4 38  1  0  0  0
  5 24  1  0  0  0
  5 39  1  0  0  0
  5 40  1  0  0  0
  5 41  1  0  0  0
  6  9  2  0  0  0
  6 18  1  0  0  0
  7 12  1  0  0  0
  7 17  1  0  0  0
  8  7  2  0  0  0
  9 13  1  0  0  0
  9 42  1  0  0  0
 10 17  2  0  0  0
 10 43  1  0  0  0
 11 18  2  0  0  0
 11 21  1  0  0  0
 11 44  1  0  0  0
 12 45  1  0  0  0
 13 27  2  0  0  0
 13 46  1  0  0  0
 14 10  1  0  0  0
 14 47  1  0  0  0
 15 48  1  0  0  0
 16 12  2  0  0  0
 16 49  1  0  0  0
 17 26  1  0  0  0
 18 19  1  0  0  0
 19 27  1  0  0  0
 19 15  2  0  0  0
 20 23  2  0  0  0
 20  8  1  0  0  0
 20 50  1  0  0  0
 21 22  2  0  0  0
 21 51  1  0  0  0
 22 15  1  0  0  0
 22 29  1  0  0  0
 23 16  1  0  0  0
 24  2  1  0  0  0
 24  1  1  0  0  0
 25  6  1  0  0  0
 25 52  1  0  0  0
 26  4  1  0  0  0
 26 53  1  0  0  0
 28  8  1  0  0  0
 28 14  2  0  0  0
 30 23  1  0  0  0
M  END
$$$$
