A1LYA
  CCTOOLS-0919241044

134133  0  0  1  0  0  0  0  0999 V2000
   -0.2460   -4.5540    0.3050 O   0  5  0  0  0
   -1.5310   -3.9600   -0.3130 P   0  0  0  0  0
   -2.2950   -5.0670   -1.0750 O   0  0  0  0  0
   -2.4670   -3.3690    0.8560 O   0  0  0  0  0
   -3.0600   -4.1880    1.8660 C   0  0  0  0  0
   -3.9800   -3.3330    2.7400 C   0  0  0  0  0
   -4.6500   -4.1880    3.7290 N   0  3  0  0  0
   -5.5840   -3.3790    4.5230 C   0  0  0  0  0
   -5.3900   -5.2510    3.0360 C   0  0  0  0  0
   -3.6460   -4.7880    4.6170 C   0  0  0  0  0
   -1.1390   -2.7790   -1.3350 O   0  0  0  0  0
   -0.3940   -3.0020   -2.5340 C   0  0  0  0  0
   -0.0890   -1.6600   -3.2030 C   0  0  0  0  0
    0.7670   -0.8710   -2.3350 O   0  0  0  0  0
    2.0920   -1.0180   -2.4900 C   0  0  0  0  0
    2.5230   -1.7800   -3.3230 O   0  0  0  0  0
    3.0440   -0.2310   -1.6260 C   0  0  0  0  0
    4.4840   -0.5810   -2.0030 C   0  0  0  0  0
    5.4500    0.2170   -1.1260 C   0  0  0  0  0
    6.8910   -0.1330   -1.5030 C   0  0  0  0  0
    7.8570    0.6660   -0.6250 C   0  0  0  0  0
    9.2970    0.3150   -1.0030 C   0  0  0  0  0
   10.2630    1.1140   -0.1250 C   0  0  0  0  0
   11.7040    0.7630   -0.5030 C   0  0  0  0  0
   12.6700    1.5620    0.3750 C   0  0  0  0  0
   14.1100    1.2120   -0.0020 C   0  0  0  0  0
   15.0760    2.0100    0.8750 C   0  0  0  0  0
   16.5170    1.6600    0.4980 C   0  0  0  0  0
   17.4830    2.4590    1.3750 C   0  0  0  0  0
   18.9230    2.1080    0.9980 C   0  0  0  0  0
   19.8890    2.9070    1.8760 C   0  0  0  0  0
   21.3300    2.5570    1.4980 C   0  0  0  0  0
   22.2960    3.3550    2.3760 C   0  0  0  0  0
   -1.3970   -0.9060   -3.4520 C   0  0  0  0  0
   -2.1150   -0.7550   -2.1990 O   0  0  0  0  0
   -3.3340   -0.1970   -2.2580 C   0  0  0  0  0
   -3.8250    0.0690   -3.3300 O   0  0  0  0  0
   -4.0900    0.0990   -0.9890 C   0  0  0  0  0
   -5.3810    0.8470   -1.3270 C   0  0  0  0  0
   -6.1490    1.1470   -0.0380 C   0  0  0  0  0
   -7.4410    1.8950   -0.3760 C   0  0  0  0  0
   -8.2080    2.1950    0.9130 C   0  0  0  0  0
   -9.5000    2.9430    0.5750 C   0  0  0  0  0
  -10.2680    3.2430    1.8640 C   0  0  0  0  0
  -11.5400    3.9800    1.5310 C   0  0  0  0  0
  -12.6930    3.5130    1.9400 C   0  0  0  0  0
  -13.9650    4.2490    1.6070 C   0  0  0  0  0
  -14.9340    3.2990    0.9000 C   0  0  0  0  0
  -16.2260    4.0470    0.5620 C   0  0  0  0  0
  -17.1950    3.0970   -0.1450 C   0  0  0  0  0
  -18.4860    3.8450   -0.4830 C   0  0  0  0  0
  -19.4550    2.8950   -1.1890 C   0  0  0  0  0
   -3.6410   -4.9820    1.3960 H   0  0  0  0  0
   -2.2770   -4.6270    2.4840 H   0  0  0  0  0
   -3.3910   -2.5740    3.2550 H   0  0  0  0  0
   -4.7280   -2.8470    2.1130 H   0  0  0  0  0
   -5.0350   -2.5900    5.0370 H   0  0  0  0  0
   -6.3290   -2.9330    3.8640 H   0  0  0  0  0
   -6.0810   -4.0130    5.2570 H   0  0  0  0  0
   -5.9890   -5.8060    3.7570 H   0  0  0  0  0
   -6.0430   -4.8080    2.2840 H   0  0  0  0  0
   -4.6850   -5.9280    2.5520 H   0  0  0  0  0
   -3.0970   -4.0000    5.1310 H   0  0  0  0  0
   -4.1420   -5.4230    5.3510 H   0  0  0  0  0
   -2.9520   -5.3890    4.0280 H   0  0  0  0  0
    0.5410   -3.5080   -2.2920 H   0  0  0  0  0
   -0.9780   -3.6230   -3.2140 H   0  0  0  0  0
    0.4170   -1.8340   -4.1520 H   0  0  0  0  0
    2.8770    0.8350   -1.7790 H   0  0  0  0  0
    2.8720   -0.4790   -0.5780 H   0  0  0  0  0
    4.6510   -1.6480   -1.8500 H   0  0  0  0  0
    4.6560   -0.3340   -3.0510 H   0  0  0  0  0
    5.2830    1.2830   -1.2790 H   0  0  0  0  0
    5.2790   -0.0300   -0.0780 H   0  0  0  0  0
    7.0580   -1.1990   -1.3500 H   0  0  0  0  0
    7.0620    0.1150   -2.5510 H   0  0  0  0  0
    7.6900    1.7320   -0.7790 H   0  0  0  0  0
    7.6850    0.4180    0.4220 H   0  0  0  0  0
    9.4640   -0.7510   -0.8500 H   0  0  0  0  0
    9.4690    0.5630   -2.0500 H   0  0  0  0  0
   10.0960    2.1800   -0.2780 H   0  0  0  0  0
   10.0920    0.8660    0.9220 H   0  0  0  0  0
   11.8710   -0.3030   -0.3490 H   0  0  0  0  0
   11.8750    1.0110   -1.5500 H   0  0  0  0  0
   12.5030    2.6280    0.2220 H   0  0  0  0  0
   12.4980    1.3140    1.4230 H   0  0  0  0  0
   14.2770    0.1460    0.1510 H   0  0  0  0  0
   14.2820    1.4590   -1.0500 H   0  0  0  0  0
   14.9090    3.0770    0.7220 H   0  0  0  0  0
   14.9050    1.7630    1.9230 H   0  0  0  0  0
   16.6840    0.5940    0.6510 H   0  0  0  0  0
   16.6880    1.9080   -0.5500 H   0  0  0  0  0
   17.3160    3.5250    1.2220 H   0  0  0  0  0
   17.3110    2.2110    2.4230 H   0  0  0  0  0
   19.0900    1.0420    1.1510 H   0  0  0  0  0
   19.0950    2.3560   -0.0490 H   0  0  0  0  0
   19.7220    3.9730    1.7220 H   0  0  0  0  0
   19.7180    2.6590    2.9230 H   0  0  0  0  0
   21.4970    1.4900    1.6510 H   0  0  0  0  0
   21.5010    2.8040    0.4510 H   0  0  0  0  0
   22.1290    4.4220    2.2230 H   0  0  0  0  0
   22.1240    3.1080    3.4240 H   0  0  0  0  0
   23.3220    3.1060    2.1070 H   0  0  0  0  0
   -1.1760    0.0780   -3.8650 H   0  0  0  0  0
   -2.0110   -1.4670   -4.1570 H   0  0  0  0  0
   -4.3330   -0.8360   -0.4840 H   0  0  0  0  0
   -3.4740    0.7150   -0.3340 H   0  0  0  0  0
   -5.1380    1.7820   -1.8310 H   0  0  0  0  0
   -5.9970    0.2310   -1.9820 H   0  0  0  0  0
   -6.3920    0.2120    0.4660 H   0  0  0  0  0
   -5.5330    1.7630    0.6170 H   0  0  0  0  0
   -7.1980    2.8300   -0.8800 H   0  0  0  0  0
   -8.0570    1.2780   -1.0310 H   0  0  0  0  0
   -8.4520    1.2600    1.4170 H   0  0  0  0  0
   -7.5930    2.8110    1.5680 H   0  0  0  0  0
   -9.2570    3.8780    0.0710 H   0  0  0  0  0
  -10.1160    2.3260   -0.0800 H   0  0  0  0  0
  -10.5110    2.3080    2.3680 H   0  0  0  0  0
   -9.6520    3.8590    2.5180 H   0  0  0  0  0
  -11.5000    4.8920    0.9550 H   0  0  0  0  0
  -12.7330    2.6000    2.5150 H   0  0  0  0  0
  -14.4220    4.6180    2.5250 H   0  0  0  0  0
  -13.7370    5.0900    0.9510 H   0  0  0  0  0
  -14.4770    2.9310   -0.0180 H   0  0  0  0  0
  -15.1620    2.4590    1.5560 H   0  0  0  0  0
  -16.6830    4.4160    1.4800 H   0  0  0  0  0
  -15.9980    4.8880   -0.0940 H   0  0  0  0  0
  -16.7380    2.7280   -1.0630 H   0  0  0  0  0
  -17.4230    2.2570    0.5110 H   0  0  0  0  0
  -18.9440    4.2140    0.4350 H   0  0  0  0  0
  -18.2580    4.6860   -1.1380 H   0  0  0  0  0
  -18.9980    2.5260   -2.1080 H   0  0  0  0  0
  -19.6830    2.0550   -0.5340 H   0  0  0  0  0
  -20.3750    3.4280   -1.4300 H   0  0  0  0  0
  2  3  2  0  0  0
  2  1  1  0  0  0
  4  2  1  0  0  0
  5  6  1  0  0  0
  5  4  1  0  0  0
  5 53  1  0  0  0
  5 54  1  0  0  0
  6 55  1  0  0  0
  6 56  1  0  0  0
  7 10  1  0  0  0
  7  6  1  0  0  0
  8  7  1  0  0  0
  8 57  1  0  0  0
  8 58  1  0  0  0
  8 59  1  0  0  0
  9  7  1  0  0  0
  9 60  1  0  0  0
  9 61  1  0  0  0
  9 62  1  0  0  0
 10 63  1  0  0  0
 10 64  1  0  0  0
 10 65  1  0  0  0
 11 12  1  0  0  0
 11  2  1  0  0  0
 12 66  1  0  0  0
 12 67  1  0  0  0
 13 34  1  0  0  0
 13 14  1  0  0  0
 13 12  1  0  0  0
 13 68  1  0  0  0
 15 17  1  0  0  0
 15 14  1  0  0  0
 16 15  2  0  0  0
 17 18  1  0  0  0
 17 69  1  0  0  0
 17 70  1  0  0  0
 18 19  1  0  0  0
 18 71  1  0  0  0
 18 72  1  0  0  0
 19 20  1  0  0  0
 19 73  1  0  0  0
 19 74  1  0  0  0
 20 21  1  0  0  0
 20 75  1  0  0  0
 20 76  1  0  0  0
 21 22  1  0  0  0
 21 77  1  0  0  0
 21 78  1  0  0  0
 22 23  1  0  0  0
 22 79  1  0  0  0
 22 80  1  0  0  0
 23 24  1  0  0  0
 23 81  1  0  0  0
 23 82  1  0  0  0
 24 25  1  0  0  0
 24 83  1  0  0  0
 24 84  1  0  0  0
 25 26  1  0  0  0
 25 85  1  0  0  0
 25 86  1  0  0  0
 26 87  1  0  0  0
 26 88  1  0  0  0
 27 26  1  0  0  0
 27 28  1  0  0  0
 27 89  1  0  0  0
 27 90  1  0  0  0
 28 29  1  0  0  0
 28 91  1  0  0  0
 28 92  1  0  0  0
 29 93  1  0  0  0
 29 94  1  0  0  0
 30 29  1  0  0  0
 30 31  1  0  0  0
 30 95  1  0  0  0
 30 96  1  0  0  0
 31 32  1  0  0  0
 31 97  1  0  0  0
 31 98  1  0  0  0
 32 33  1  0  0  0
 32 99  1  0  0  0
 32100  1  0  0  0
 33101  1  0  0  0
 33102  1  0  0  0
 33103  1  0  0  0
 34 35  1  0  0  0
 34104  1  0  0  0
 34105  1  0  0  0
 35 36  1  0  0  0
 36 37  2  0  0  0
 36 38  1  0  0  0
 38 39  1  0  0  0
 38106  1  0  0  0
 38107  1  0  0  0
 39 40  1  0  0  0
 39108  1  0  0  0
 39109  1  0  0  0
 40 41  1  0  0  0
 40110  1  0  0  0
 40111  1  0  0  0
 41 42  1  0  0  0
 41112  1  0  0  0
 41113  1  0  0  0
 42 43  1  0  0  0
 42114  1  0  0  0
 42115  1  0  0  0
 43 44  1  0  0  0
 43116  1  0  0  0
 43117  1  0  0  0
 44 45  1  0  0  0
 44118  1  0  0  0
 44119  1  0  0  0
 45 46  2  0  0  0
 45120  1  0  0  0
 46 47  1  0  0  0
 46121  1  0  0  0
 47 48  1  0  0  0
 47122  1  0  0  0
 47123  1  0  0  0
 48 49  1  0  0  0
 48124  1  0  0  0
 48125  1  0  0  0
 49126  1  0  0  0
 49127  1  0  0  0
 50 49  1  0  0  0
 50 51  1  0  0  0
 50128  1  0  0  0
 50129  1  0  0  0
 51130  1  0  0  0
 51131  1  0  0  0
 52 51  1  0  0  0
 52132  1  0  0  0
 52133  1  0  0  0
 52134  1  0  0  0
M  CHG  1   1  -1
M  CHG  1   7   1
M  END
$$$$
