A1LYV
  CCTOOLS-0919241044

 41 42  0  0  1  0  0  0  0  0999 V2000
    4.5950    0.6600    0.3000 C   0  0  0  0  0
    5.0910    0.4280    1.7040 C   0  0  0  0  0
   -2.6150    1.2730    0.4010 C   0  0  0  0  0
   -3.8830    0.7270    0.2510 C   0  0  0  0  0
   -4.0300   -0.6130   -0.0850 C   0  0  0  0  0
    0.5280   -3.8390   -0.8380 C   0  0  0  0  0
   -0.5960   -3.0560   -0.6520 C   0  0  0  0  0
   -0.4420   -1.7070   -0.3180 C   0  0  0  0  0
    0.7630   -1.1800   -0.1790 N   0  0  0  0  0
    1.8610   -1.9050   -0.3510 C   0  0  0  0  0
    1.7780   -3.2540   -0.6850 C   0  0  0  0  0
    3.1910   -1.2710   -0.1860 C   0  0  0  0  0
    4.2010   -1.9290   -0.3410 O   0  0  0  0  0
    3.2800    0.0340    0.1370 N   0  0  0  0  0
    4.4790    2.1640    0.0420 C   0  0  0  0  0
    4.1010    2.3990   -1.3980 C   0  0  0  0  0
    3.9410    1.4600   -2.1410 O   0  0  0  0  0
    3.9430    3.6510   -1.8540 O   0  0  0  0  0
    6.2830    0.9150    2.0840 O   0  0  0  0  0
    4.4160   -0.1970    2.4880 O   0  0  0  0  0
   -1.6420   -0.8590   -0.1170 C   0  0  0  0  0
   -1.4980    0.4870    0.2160 C   0  0  0  0  0
   -2.9160   -1.4040   -0.2720 C   0  0  0  0  0
   -4.9820    1.5040    0.4350 O   0  0  0  0  0
   -6.2550    0.8770    0.2650 C   0  0  0  0  0
   -7.2690    1.8140    0.4900 F   0  0  0  0  0
   -6.3600    0.3800   -1.0380 F   0  0  0  0  0
   -6.3820   -0.1760    1.1780 F   0  0  0  0  0
    5.2960    0.2230   -0.4100 H   0  0  0  0  0
   -2.5040    2.3160    0.6590 H   0  0  0  0  0
   -5.0170   -1.0350   -0.2010 H   0  0  0  0  0
    0.4360   -4.8840   -1.0920 H   0  0  0  0  0
   -1.5830   -3.4810   -0.7640 H   0  0  0  0  0
    2.6750   -3.8400   -0.8190 H   0  0  0  0  0
    2.4740    0.5590    0.2610 H   0  0  0  0  0
    3.7130    2.5860    0.6920 H   0  0  0  0  0
    5.4360    2.6430    0.2500 H   0  0  0  0  0
    3.7000    3.7520   -2.7840 H   0  0  0  0  0
    6.5580    0.7400    2.9940 H   0  0  0  0  0
   -0.5120    0.9130    0.3280 H   0  0  0  0  0
   -3.0310   -2.4450   -0.5340 H   0  0  0  0  0
  1  2  1  0  0  0
  1 29  1  0  0  0
  2 19  1  0  0  0
  3 22  1  0  0  0
  3 30  1  0  0  0
  4  3  2  0  0  0
  4  5  1  0  0  0
  5 23  2  0  0  0
  5 31  1  0  0  0
  6 11  1  0  0  0
  6 32  1  0  0  0
  7  6  2  0  0  0
  7 33  1  0  0  0
  8  9  2  0  0  0
  8  7  1  0  0  0
  9 10  1  0  0  0
 10 12  1  0  0  0
 10 11  2  0  0  0
 11 34  1  0  0  0
 12 14  1  0  0  0
 13 12  2  0  0  0
 14  1  1  0  0  0
 14 35  1  0  0  0
 15 16  1  0  0  0
 15  1  1  0  0  0
 15 36  1  0  0  0
 15 37  1  0  0  0
 16 18  1  0  0  0
 17 16  2  0  0  0
 18 38  1  0  0  0
 19 39  1  0  0  0
 20  2  2  0  0  0
 21  8  1  0  0  0
 22 21  2  0  0  0
 22 40  1  0  0  0
 23 21  1  0  0  0
 23 41  1  0  0  0
 24  4  1  0  0  0
 25 24  1  0  0  0
 25 28  1  0  0  0
 26 25  1  0  0  0
 27 25  1  0  0  0
M  END
$$$$
