A1LY4
  CCTOOLS-0919241044

 27 28  0  0  0  0  0  0  0  0999 V2000
   -2.5240   -0.8740   -0.6430 N   0  0  0  0  0
    1.0040    0.9480    0.2980 C   0  0  0  0  0
    2.2200    1.4970   -0.4530 C   0  0  0  0  0
    3.2730   -0.6860   -0.4590 C   0  0  0  0  0
    2.0870   -1.3000    0.2920 C   0  0  0  0  0
    0.8120   -0.5280   -0.0600 C   0  0  0  0  0
   -0.3650   -1.0970    0.7340 C   0  0  0  0  0
   -1.6390   -0.4200    0.2980 C   0  0  0  0  0
   -2.1250    0.7480    0.7570 C   0  0  0  0  0
   -3.5180    0.0360   -0.7290 C   0  0  0  0  0
    3.4140    0.7260   -0.0820 N   0  0  0  0  0
   -3.2760    1.0010    0.1160 N   0  0  0  0  0
   -2.4490   -1.6950   -1.1550 H   0  0  0  0  0
    1.1650    1.0450    1.3710 H   0  0  0  0  0
    0.1160    1.5110    0.0110 H   0  0  0  0  0
    2.0530    1.4130   -1.5270 H   0  0  0  0  0
    2.3680    2.5440   -0.1890 H   0  0  0  0  0
    4.1850   -1.2240   -0.2000 H   0  0  0  0  0
    3.1010   -0.7590   -1.5320 H   0  0  0  0  0
    1.9730   -2.3440   -0.0000 H   0  0  0  0  0
    2.2650   -1.2390    1.3660 H   0  0  0  0  0
    0.6130   -0.6220   -1.1270 H   0  0  0  0  0
   -0.4430   -2.1690    0.5510 H   0  0  0  0  0
   -0.2060   -0.9200    1.7980 H   0  0  0  0  0
   -1.6690    1.3730    1.5120 H   0  0  0  0  0
   -4.3730   -0.0260   -1.3860 H   0  0  0  0  0
    3.6130    0.8200    0.9030 H   0  0  0  0  0
  1 13  1  0  0  0
  2 14  1  0  0  0
  2 15  1  0  0  0
  3  2  1  0  0  0
  3 16  1  0  0  0
  3 17  1  0  0  0
  4  5  1  0  0  0
  4 18  1  0  0  0
  4 19  1  0  0  0
  5  6  1  0  0  0
  5 20  1  0  0  0
  5 21  1  0  0  0
  6  2  1  0  0  0
  6  7  1  0  0  0
  6 22  1  0  0  0
  7 23  1  0  0  0
  7 24  1  0  0  0
  8  7  1  0  0  0
  8  1  1  0  0  0
  9  8  2  0  0  0
  9 25  1  0  0  0
 10  1  1  0  0  0
 10 26  1  0  0  0
 11  4  1  0  0  0
 11  3  1  0  0  0
 11 27  1  0  0  0
 12  9  1  0  0  0
 12 10  2  0  0  0
M  END
$$$$
