A1LZO
  CCTOOLS-0919241044

 28 28  0  0  0  0  0  0  0  0999 V2000
    1.6400   -0.2680   -0.1340 C   0  0  0  0  0
    2.9540   -0.0940   -0.3770 N   0  0  0  0  0
   -2.4420   -2.1070    0.1360 C   0  0  0  0  0
   -3.2740   -1.0020    0.2500 C   0  0  0  0  0
   -2.8150    0.2510   -0.1310 C   0  0  0  0  0
   -1.5330    0.3950   -0.6230 C   0  0  0  0  0
   -0.7060   -0.7070   -0.7360 C   0  0  0  0  0
   -1.1600   -1.9570   -0.3560 C   0  0  0  0  0
    5.2740    0.3260    0.1950 C   0  0  0  0  0
    0.6930   -0.5470   -1.2730 C   0  0  0  0  0
    3.8750    0.1710    0.7310 C   0  0  0  0  0
   -3.7000    1.4310   -0.0110 N   0  0  0  0  0
   -4.5360   -1.1470    0.7340 O   0  0  0  0  0
    5.4810    0.2260   -0.9910 O   0  0  0  0  0
    6.2910    0.5760    1.0350 O   0  0  0  0  0
   -3.2970    2.5310   -0.3460 O   0  0  0  0  0
   -4.8310    1.3030    0.4220 O   0  0  0  0  0
    1.2190   -0.2060    1.0020 O   0  0  0  0  0
    3.2890   -0.1430   -1.2850 H   0  0  0  0  0
   -2.7950   -3.0820    0.4370 H   0  0  0  0  0
   -1.1750    1.3700   -0.9200 H   0  0  0  0  0
   -0.5110   -2.8160   -0.4410 H   0  0  0  0  0
    0.7180    0.2840   -1.9780 H   0  0  0  0  0
    0.9950   -1.4630   -1.7800 H   0  0  0  0  0
    3.5770    1.0880    1.2400 H   0  0  0  0  0
    3.8450   -0.6610    1.4350 H   0  0  0  0  0
   -4.6020   -1.0490    1.6940 H   0  0  0  0  0
    7.1710    0.6670    0.6440 H   0  0  0  0  0
  1 18  2  0  0  0
  1  2  1  0  0  0
  2 11  1  0  0  0
  2 19  1  0  0  0
  3  8  1  0  0  0
  3 20  1  0  0  0
  4  3  2  0  0  0
  4  5  1  0  0  0
  5  6  2  0  0  0
  6  7  1  0  0  0
  6 21  1  0  0  0
  7 10  1  0  0  0
  8  7  2  0  0  0
  8 22  1  0  0  0
  9 15  1  0  0  0
 10  1  1  0  0  0
 10 23  1  0  0  0
 10 24  1  0  0  0
 11  9  1  0  0  0
 11 25  1  0  0  0
 11 26  1  0  0  0
 12  5  1  0  0  0
 12 16  2  0  0  0
 13  4  1  0  0  0
 13 27  1  0  0  0
 14  9  2  0  0  0
 15 28  1  0  0  0
 17 12  2  0  0  0
M  END
$$$$
