A1LZU
  CCTOOLS-0919241044

 40 40  0  0  0  0  0  0  0  0999 V2000
   -1.0700   -2.6330   -0.5430 C   0  0  0  0  0
    2.7320    1.8690    0.3690 C   0  0  0  0  0
    4.1280    1.9140    0.9930 C   0  0  0  0  0
    2.6780    2.8160   -0.8310 C   0  0  0  0  0
   -0.5690    1.1230    0.8800 C   0  0  0  0  0
   -0.1110   -2.2560    0.5880 C   0  0  0  0  0
    0.3770   -3.5260    1.2880 C   0  0  0  0  0
    1.0690   -1.5120    0.0180 C   0  0  0  0  0
    1.3440   -0.2190    0.4400 C   0  0  0  0  0
    2.4310    0.4640   -0.0860 C   0  0  0  0  0
    3.2370   -0.1450   -1.0290 C   0  0  0  0  0
    2.9610   -1.4330   -1.4470 C   0  0  0  0  0
    1.8820   -2.1180   -0.9200 C   0  0  0  0  0
    0.5490    0.3780    1.3670 O   0  0  0  0  0
   -1.5900    0.2210    0.4470 O   0  0  0  0  0
   -3.6510    1.6360    0.7930 O   0  0  0  0  0
   -2.7380    1.4810   -1.5550 O   0  0  0  0  0
   -3.9470   -0.5580   -0.4180 O   0  0  0  0  0
   -2.9960    0.7150   -0.1620 P   0  0  0  0  0
   -0.5530   -3.2680   -1.2620 H   0  0  0  0  0
   -1.9240   -3.1710   -0.1310 H   0  0  0  0  0
   -1.4180   -1.7280   -1.0410 H   0  0  0  0  0
    1.9930    2.1770    1.1090 H   0  0  0  0  0
    4.3460    2.9300    1.3220 H   0  0  0  0  0
    4.1660    1.2390    1.8480 H   0  0  0  0  0
    4.8670    1.6060    0.2530 H   0  0  0  0  0
    1.6840    2.7840   -1.2750 H   0  0  0  0  0
    2.8960    3.8320   -0.5020 H   0  0  0  0  0
    3.4170    2.5080   -1.5710 H   0  0  0  0  0
   -0.9580    1.7570    1.6770 H   0  0  0  0  0
   -0.2540    1.7450    0.0420 H   0  0  0  0  0
   -0.6280   -1.6210    1.3070 H   0  0  0  0  0
    0.8950   -4.1610    0.5680 H   0  0  0  0  0
    1.0610   -3.2580    2.0930 H   0  0  0  0  0
   -0.4760   -4.0650    1.7000 H   0  0  0  0  0
    4.0830    0.3860   -1.4390 H   0  0  0  0  0
    3.5920   -1.9070   -2.1850 H   0  0  0  0  0
    1.6710   -3.1260   -1.2450 H   0  0  0  0  0
   -2.3100    0.9370   -2.2300 H   0  0  0  0  0
   -4.8130   -0.3350   -0.7860 H   0  0  0  0  0
  1  6  1  0  0  0
  1 20  1  0  0  0
  1 21  1  0  0  0
  1 22  1  0  0  0
  2  4  1  0  0  0
  2 10  1  0  0  0
  2 23  1  0  0  0
  3  2  1  0  0  0
  3 24  1  0  0  0
  3 25  1  0  0  0
  3 26  1  0  0  0
  4 27  1  0  0  0
  4 28  1  0  0  0
  4 29  1  0  0  0
  5 14  1  0  0  0
  5 30  1  0  0  0
  5 31  1  0  0  0
  6  8  1  0  0  0
  6  7  1  0  0  0
  6 32  1  0  0  0
  7 33  1  0  0  0
  7 34  1  0  0  0
  7 35  1  0  0  0
  8 13  2  0  0  0
  9 10  2  0  0  0
  9  8  1  0  0  0
 10 11  1  0  0  0
 11 12  2  0  0  0
 11 36  1  0  0  0
 12 37  1  0  0  0
 13 12  1  0  0  0
 13 38  1  0  0  0
 14  9  1  0  0  0
 15  5  1  0  0  0
 16 19  2  0  0  0
 17 39  1  0  0  0
 18 19  1  0  0  0
 18 40  1  0  0  0
 19 15  1  0  0  0
 19 17  1  0  0  0
M  END
$$$$
