A8W
  CCTOOLS-0919241027

 59 62  0  0  1  0  0  0  0  0999 V2000
   -1.5310    0.8810    0.0340 C   0  0  0  0  0
    1.2320    0.5890    0.3580 C   0  0  0  0  0
    0.7660    1.7880    0.1640 C   0  0  0  0  0
    2.6320   -1.8500   -0.1230 C   0  0  0  0  0
    2.6550    0.4440    0.8700 C   0  0  0  0  0
   -6.6530   -0.0130    1.1530 O   0  0  0  0  0
    1.2650   -1.6140   -0.7680 C   0  0  0  0  0
    0.4450   -0.6640    0.1100 C   0  0  0  0  0
   -1.8190   -1.6130   -0.3120 C   0  0  0  0  0
   -3.2300   -1.3700   -0.8710 C   0  0  0  0  0
   -3.7790   -0.1350   -0.1770 C   0  0  0  0  0
   -2.8890    1.0580   -0.6170 C   0  0  0  0  0
   -3.6970    2.2770   -0.1890 C   0  0  0  0  0
   -5.1790    1.8300   -0.2560 C   0  0  0  0  0
   -5.1650    0.3250   -0.6420 C   0  0  0  0  0
   -3.7330   -0.3100    1.3420 C   0  0  0  0  0
    0.2030   -1.3500    1.4560 C   0  0  0  0  0
   -6.2490   -0.4230    0.0910 C   0  0  0  0  0
    3.4010   -0.5300   -0.0470 C   0  0  0  0  0
   -0.6210    2.0550   -0.3450 C   0  0  0  0  0
   -0.9100   -0.4060   -0.5260 C   0  0  0  0  0
    4.7090   -0.7700    0.4760 O   0  0  0  0  0
    7.0310   -0.3840    0.3490 O   0  0  0  0  0
    5.4790    0.2490   -1.5060 O   0  0  0  0  0
    5.6240    1.5030    0.4850 O   0  0  0  0  0
    5.7890    0.1180   -0.1250 S   0  0  0  0  0
   -6.8280   -1.6820   -0.5010 C   0  0  0  0  0
   -1.6250    0.8130    1.1180 H   0  0  0  0  0
    1.4060    2.6300    0.3800 H   0  0  0  0  0
    2.4940   -2.2470    0.8830 H   0  0  0  0  0
    3.1960   -2.5650   -0.7210 H   0  0  0  0  0
    3.1510    1.4140    0.8560 H   0  0  0  0  0
    2.6410    0.0530    1.8870 H   0  0  0  0  0
    1.4000   -1.1710   -1.7550 H   0  0  0  0  0
    0.7390   -2.5640   -0.8650 H   0  0  0  0  0
   -1.8910   -1.8190    0.7550 H   0  0  0  0  0
   -1.3850   -2.4780   -0.8130 H   0  0  0  0  0
   -3.1800   -1.2010   -1.9460 H   0  0  0  0  0
   -3.8660   -2.2300   -0.6590 H   0  0  0  0  0
   -2.7790    1.0540   -1.7020 H   0  0  0  0  0
   -3.4360    2.5650    0.8290 H   0  0  0  0  0
   -3.5210    3.1070   -0.8730 H   0  0  0  0  0
   -5.6550    1.9630    0.7160 H   0  0  0  0  0
   -5.7100    2.4060   -1.0140 H   0  0  0  0  0
   -5.2720    0.2030   -1.7190 H   0  0  0  0  0
   -2.7040   -0.4900    1.6560 H   0  0  0  0  0
   -4.1070    0.5940    1.8230 H   0  0  0  0  0
   -4.3540   -1.1580    1.6290 H   0  0  0  0  0
    1.1600   -1.5670    1.9310 H   0  0  0  0  0
   -0.3800   -0.6910    2.1000 H   0  0  0  0  0
   -0.3440   -2.2790    1.2970 H   0  0  0  0  0
    3.4820   -0.0990   -1.0450 H   0  0  0  0  0
   -0.5960    2.1610   -1.4290 H   0  0  0  0  0
   -1.0030    2.9720    0.1040 H   0  0  0  0  0
   -0.7580   -0.2760   -1.5980 H   0  0  0  0  0
   -7.6810   -1.4280   -1.1300 H   0  0  0  0  0
   -6.0700   -2.1830   -1.1020 H   0  0  0  0  0
   -7.1520   -2.3450    0.3010 H   0  0  0  0  0
    6.2670    2.1520    0.1680 H   0  0  0  0  0
  1 21  1  0  0  0
  1 20  1  0  0  0
  1 28  1  0  0  0
  2  5  1  0  0  0
  3  2  2  0  0  0
  3 29  1  0  0  0
  4 19  1  0  0  0
  4 30  1  0  0  0
  4 31  1  0  0  0
  5 19  1  0  0  0
  5 32  1  0  0  0
  5 33  1  0  0  0
  6 18  2  0  0  0
  7  4  1  0  0  0
  7 34  1  0  0  0
  7 35  1  0  0  0
  8  7  1  0  0  0
  8  2  1  0  0  0
  9 21  1  0  0  0
  9 36  1  0  0  0
  9 37  1  0  0  0
 10  9  1  0  0  0
 10 38  1  0  0  0
 10 39  1  0  0  0
 11 10  1  0  0  0
 11 12  1  0  0  0
 12  1  1  0  0  0
 12 40  1  0  0  0
 13 12  1  0  0  0
 13 41  1  0  0  0
 13 42  1  0  0  0
 14 13  1  0  0  0
 14 43  1  0  0  0
 14 44  1  0  0  0
 15 14  1  0  0  0
 15 11  1  0  0  0
 15 45  1  0  0  0
 16 11  1  0  0  0
 16 46  1  0  0  0
 16 47  1  0  0  0
 16 48  1  0  0  0
 17  8  1  0  0  0
 17 49  1  0  0  0
 17 50  1  0  0  0
 17 51  1  0  0  0
 18 15  1  0  0  0
 19 22  1  0  0  0
 19 52  1  0  0  0
 20  3  1  0  0  0
 20 53  1  0  0  0
 20 54  1  0  0  0
 21  8  1  0  0  0
 21 55  1  0  0  0
 22 26  1  0  0  0
 24 26  2  0  0  0
 25 59  1  0  0  0
 26 25  1  0  0  0
 26 23  2  0  0  0
 27 18  1  0  0  0
 27 56  1  0  0  0
 27 57  1  0  0  0
 27 58  1  0  0  0
M  END
$$$$
