AV0
  CCTOOLS-0919241030

157160  0  0  1  0  0  0  0  0999 V2000
   -3.2590   -1.6370    0.4310 C   0  0  0  0  0
   -2.1610   -1.0870    1.1620 O   0  0  0  0  0
   -4.2510   -2.2760    1.4060 C   0  0  0  0  0
   -3.6160   -3.3530    2.0970 O   0  0  0  0  0
   -5.4540   -2.8100    0.6210 C   0  0  0  0  0
   -6.4190   -3.3430    1.5300 O   0  0  0  0  0
   -6.0800   -1.6620   -0.1760 C   0  0  0  0  0
   -7.1580   -2.1640   -0.9690 O   0  0  0  0  0
   -5.0160   -1.0470   -1.0900 C   0  0  0  0  0
   -3.9130   -0.5990   -0.3000 O   0  0  0  0  0
   -5.6180    0.1390   -1.8460 C   0  0  0  0  0
   -4.6570    0.6510   -2.7720 O   0  0  0  0  0
   -5.6020   11.1630    1.2250 C   0  0  0  0  0
    5.6000  -11.1700    1.2160 C   0  0  0  0  0
   -8.6520    1.9410   -0.2760 O   0  0  0  0  0
    8.6830   -1.9360   -0.2810 O   0  0  0  0  0
    4.6510   -0.6550   -2.7740 O   0  0  0  0  0
    6.4180    3.3330    1.5310 O   0  0  0  0  0
    3.6150    3.3440    2.1000 O   0  0  0  0  0
  -10.3240   -0.2470   -3.4080 O   0  0  0  0  0
   10.3430    0.2720   -3.4050 O   0  0  0  0  0
  -10.6340   -3.0810   -3.1770 O   0  0  0  0  0
   10.6280    3.1080   -3.1680 O   0  0  0  0  0
   -8.8610   -4.3600   -1.3330 O   0  0  0  0  0
    8.8390    4.3690   -1.3260 O   0  0  0  0  0
   -5.0420   10.0460    2.1080 C   0  0  0  0  0
    5.0400  -10.0540    2.1000 C   0  0  0  0  0
   -4.4820    8.9300    1.2240 C   0  0  0  0  0
    4.4800   -8.9370    1.2170 C   0  0  0  0  0
   -3.9220    7.8130    2.1070 C   0  0  0  0  0
    3.9200   -7.8200    2.1000 C   0  0  0  0  0
   -3.3620    6.6960    1.2230 C   0  0  0  0  0
    3.3590   -6.7030    1.2170 C   0  0  0  0  0
   -2.8020    5.5790    2.1060 C   0  0  0  0  0
    2.7990   -5.5870    2.1010 C   0  0  0  0  0
   -2.2420    4.4630    1.2220 C   0  0  0  0  0
    2.2390   -4.4700    1.2180 C   0  0  0  0  0
   -1.6810    3.3460    2.1050 C   0  0  0  0  0
    1.6790   -3.3540    2.1020 C   0  0  0  0  0
   -1.1210    2.2300    1.2210 C   0  0  0  0  0
    1.1190   -2.2370    1.2190 C   0  0  0  0  0
   -9.6550    1.2090   -0.9830 C   0  0  0  0  0
    9.6810   -1.1930   -0.9840 C   0  0  0  0  0
    5.6130   -0.1440   -1.8500 C   0  0  0  0  0
   -0.5610    1.1130    2.1040 C   0  0  0  0  0
    0.5590   -1.1200    2.1030 C   0  0  0  0  0
   -1.1180   -0.5630    0.3370 C   0  0  0  0  0
    1.1150    0.5570    0.3370 C   0  0  0  0  0
    2.1580    1.0800    1.1620 O   0  0  0  0  0
    3.9100    0.5930   -0.3020 O   0  0  0  0  0
   -8.9210   -0.9140   -0.0890 O   0  0  0  0  0
    8.9270    0.9210   -0.0880 O   0  0  0  0  0
    7.1550    2.1570   -0.9700 O   0  0  0  0  0
   -9.1310   -0.1920   -1.3050 C   0  0  0  0  0
    9.1460    0.2040   -1.3040 C   0  0  0  0  0
    5.0120    1.0420   -1.0920 C   0  0  0  0  0
    5.4520    2.8020    0.6220 C   0  0  0  0  0
    3.2560    1.6310    0.4320 C   0  0  0  0  0
    4.2500    2.2680    1.4070 C   0  0  0  0  0
   -0.0010   -0.0040    1.2200 C   0  0  0  0  0
  -10.1560   -0.9350   -2.1670 C   0  0  0  0  0
   10.1660    0.9570   -2.1630 C   0  0  0  0  0
    6.0770    1.6550   -0.1770 C   0  0  0  0  0
   -8.4050   -2.2330   -0.2750 C   0  0  0  0  0
    8.4000    2.2370   -0.2730 C   0  0  0  0  0
   -9.6510   -2.3560   -2.4340 C   0  0  0  0  0
    9.6500    2.3740   -2.4290 C   0  0  0  0  0
   -9.4010   -3.0580   -1.0960 C   0  0  0  0  0
    9.3900    3.0710   -1.0900 C   0  0  0  0  0
   -2.8920   -2.3940   -0.2620 H   0  0  0  0  0
   -4.5880   -1.5290    2.1250 H   0  0  0  0  0
   -2.8420   -3.0870    2.6120 H   0  0  0  0  0
   -5.1240   -3.5940   -0.0610 H   0  0  0  0  0
   -6.0880   -4.0710    2.0740 H   0  0  0  0  0
   -6.4540   -0.9030    0.5100 H   0  0  0  0  0
   -4.6720   -1.7960   -1.8030 H   0  0  0  0  0
   -6.5060   -0.1880   -2.3880 H   0  0  0  0  0
   -5.8920    0.9210   -1.1380 H   0  0  0  0  0
   -4.9710    1.4060   -3.2880 H   0  0  0  0  0
   -6.0010   11.9580    1.8540 H   0  0  0  0  0
   -4.8070   11.5620    0.5950 H   0  0  0  0  0
   -6.3980   10.7640    0.5950 H   0  0  0  0  0
    4.8040  -11.5690    0.5860 H   0  0  0  0  0
    6.3950  -10.7710    0.5860 H   0  0  0  0  0
    5.9990  -11.9660    1.8450 H   0  0  0  0  0
   -8.9160    2.8410   -0.0390 H   0  0  0  0  0
    8.9550   -2.8330   -0.0450 H   0  0  0  0  0
    4.9640   -1.4090   -3.2910 H   0  0  0  0  0
    6.0880    4.0610    2.0760 H   0  0  0  0  0
    2.8440    3.0770    2.6190 H   0  0  0  0  0
  -10.9600   -0.6630   -4.0050 H   0  0  0  0  0
   10.9770    0.6950   -4.0000 H   0  0  0  0  0
  -10.3810   -3.9910   -3.3820 H   0  0  0  0  0
   10.3670    4.0170   -3.3720 H   0  0  0  0  0
   -8.6730   -4.8600   -0.5270 H   0  0  0  0  0
    8.6490    4.8680   -0.5200 H   0  0  0  0  0
   -4.2470   10.4450    2.7370 H   0  0  0  0  0
   -5.8380    9.6470    2.7370 H   0  0  0  0  0
    4.2440  -10.4530    2.7290 H   0  0  0  0  0
    5.8350   -9.6550    2.7290 H   0  0  0  0  0
   -5.2780    8.5310    0.5940 H   0  0  0  0  0
   -3.6870    9.3290    0.5950 H   0  0  0  0  0
    5.2750   -8.5370    0.5870 H   0  0  0  0  0
    3.6840   -9.3350    0.5870 H   0  0  0  0  0
   -3.1260    8.2120    2.7360 H   0  0  0  0  0
   -4.7170    7.4130    2.7360 H   0  0  0  0  0
    3.1240   -8.2200    2.7300 H   0  0  0  0  0
    4.7150   -7.4220    2.7300 H   0  0  0  0  0
   -4.1570    6.2980    0.5940 H   0  0  0  0  0
   -2.5660    7.0960    0.5940 H   0  0  0  0  0
    4.1550   -6.3040    0.5880 H   0  0  0  0  0
    2.5640   -7.1020    0.5880 H   0  0  0  0  0
   -2.0060    5.9780    2.7350 H   0  0  0  0  0
   -3.5970    5.1800    2.7350 H   0  0  0  0  0
    2.0040   -5.9860    2.7310 H   0  0  0  0  0
    3.5950   -5.1880    2.7310 H   0  0  0  0  0
   -3.0370    4.0640    0.5930 H   0  0  0  0  0
   -1.4460    4.8620    0.5930 H   0  0  0  0  0
    3.0350   -4.0710    0.5890 H   0  0  0  0  0
    1.4440   -4.8690    0.5890 H   0  0  0  0  0
   -0.8860    3.7450    2.7340 H   0  0  0  0  0
   -2.4770    2.9470    2.7340 H   0  0  0  0  0
    0.8840   -3.7530    2.7310 H   0  0  0  0  0
    2.4750   -2.9550    2.7320 H   0  0  0  0  0
   -1.9170    1.8310    0.5920 H   0  0  0  0  0
   -0.3260    2.6290    0.5920 H   0  0  0  0  0
    1.9140   -1.8380    0.5900 H   0  0  0  0  0
    0.3230   -2.6360    0.5900 H   0  0  0  0  0
  -10.5500    1.1290   -0.3650 H   0  0  0  0  0
   -9.8990    1.7270   -1.9100 H   0  0  0  0  0
   10.5740   -1.1070   -0.3640 H   0  0  0  0  0
    9.9320   -1.7080   -1.9110 H   0  0  0  0  0
    5.8880   -0.9260   -1.1420 H   0  0  0  0  0
    6.5000    0.1840   -2.3920 H   0  0  0  0  0
    0.2340    1.5120    2.7330 H   0  0  0  0  0
   -1.3570    0.7140    2.7330 H   0  0  0  0  0
   -0.2360   -1.5200    2.7320 H   0  0  0  0  0
    1.3550   -0.7220    2.7330 H   0  0  0  0  0
   -0.7190   -1.3590   -0.2930 H   0  0  0  0  0
   -1.5170    0.2320   -0.2920 H   0  0  0  0  0
    0.7160    1.3530   -0.2920 H   0  0  0  0  0
    1.5140   -0.2380   -0.2930 H   0  0  0  0  0
   -8.1890   -0.1120   -1.8470 H   0  0  0  0  0
    8.2060    0.1170   -1.8490 H   0  0  0  0  0
    4.6680    1.7920   -1.8030 H   0  0  0  0  0
    5.1230    3.5870   -0.0590 H   0  0  0  0  0
    2.8890    2.3890   -0.2600 H   0  0  0  0  0
    4.5870    1.5200    2.1240 H   0  0  0  0  0
  -11.1100   -0.9790   -1.6420 H   0  0  0  0  0
   11.1180    1.0080   -1.6360 H   0  0  0  0  0
    6.4510    0.8940    0.5070 H   0  0  0  0  0
   -8.2560   -2.7050    0.6960 H   0  0  0  0  0
    8.2440    2.7060    0.6980 H   0  0  0  0  0
   -8.7230   -2.3130   -3.0040 H   0  0  0  0  0
    8.7230    2.3240   -3.0010 H   0  0  0  0  0
  -10.3390   -3.1470   -0.5490 H   0  0  0  0  0
   10.3260    3.1660   -0.5410 H   0  0  0  0  0
  1  3  1  0  0  0
  1 10  1  0  0  0
  1 70  1  0  0  0
  2  1  1  0  0  0
  3  5  1  0  0  0
  3 71  1  0  0  0
  4  3  1  0  0  0
  4 72  1  0  0  0
  5  6  1  0  0  0
  5  7  1  0  0  0
  5 73  1  0  0  0
  6 74  1  0  0  0
  7  8  1  0  0  0
  7 75  1  0  0  0
  8 64  1  0  0  0
  9  7  1  0  0  0
  9 11  1  0  0  0
  9 76  1  0  0  0
 10  9  1  0  0  0
 11 12  1  0  0  0
 11 77  1  0  0  0
 11 78  1  0  0  0
 12 79  1  0  0  0
 13 26  1  0  0  0
 13 80  1  0  0  0
 13 81  1  0  0  0
 13 82  1  0  0  0
 14 27  1  0  0  0
 14 83  1  0  0  0
 14 84  1  0  0  0
 14 85  1  0  0  0
 15 86  1  0  0  0
 16 43  1  0  0  0
 16 87  1  0  0  0
 17 88  1  0  0  0
 18 89  1  0  0  0
 19 90  1  0  0  0
 20 91  1  0  0  0
 21 62  1  0  0  0
 21 92  1  0  0  0
 22 93  1  0  0  0
 23 67  1  0  0  0
 23 94  1  0  0  0
 24 68  1  0  0  0
 24 95  1  0  0  0
 25 96  1  0  0  0
 26 28  1  0  0  0
 26 97  1  0  0  0
 26 98  1  0  0  0
 27 29  1  0  0  0
 27 99  1  0  0  0
 27100  1  0  0  0
 28 30  1  0  0  0
 28101  1  0  0  0
 28102  1  0  0  0
 29 31  1  0  0  0
 29103  1  0  0  0
 29104  1  0  0  0
 30 32  1  0  0  0
 30105  1  0  0  0
 30106  1  0  0  0
 31 33  1  0  0  0
 31107  1  0  0  0
 31108  1  0  0  0
 32 34  1  0  0  0
 32109  1  0  0  0
 32110  1  0  0  0
 33 35  1  0  0  0
 33111  1  0  0  0
 33112  1  0  0  0
 34 36  1  0  0  0
 34113  1  0  0  0
 34114  1  0  0  0
 35 37  1  0  0  0
 35115  1  0  0  0
 35116  1  0  0  0
 36 38  1  0  0  0
 36117  1  0  0  0
 36118  1  0  0  0
 37 39  1  0  0  0
 37119  1  0  0  0
 37120  1  0  0  0
 38 40  1  0  0  0
 38121  1  0  0  0
 38122  1  0  0  0
 39 41  1  0  0  0
 39123  1  0  0  0
 39124  1  0  0  0
 40125  1  0  0  0
 40126  1  0  0  0
 41 46  1  0  0  0
 41127  1  0  0  0
 41128  1  0  0  0
 42 15  1  0  0  0
 42129  1  0  0  0
 42130  1  0  0  0
 43 55  1  0  0  0
 43131  1  0  0  0
 43132  1  0  0  0
 44 17  1  0  0  0
 44 56  1  0  0  0
 44133  1  0  0  0
 44134  1  0  0  0
 45 40  1  0  0  0
 45 60  1  0  0  0
 45135  1  0  0  0
 45136  1  0  0  0
 46 60  1  0  0  0
 46137  1  0  0  0
 46138  1  0  0  0
 47  2  1  0  0  0
 47139  1  0  0  0
 47140  1  0  0  0
 48 60  1  0  0  0
 48 49  1  0  0  0
 48141  1  0  0  0
 48142  1  0  0  0
 50 58  1  0  0  0
 51 54  1  0  0  0
 52 65  1  0  0  0
 53 63  1  0  0  0
 53 65  1  0  0  0
 54 42  1  0  0  0
 54 61  1  0  0  0
 54143  1  0  0  0
 55 52  1  0  0  0
 55144  1  0  0  0
 56 50  1  0  0  0
 56 63  1  0  0  0
 56145  1  0  0  0
 57 59  1  0  0  0
 57 18  1  0  0  0
 57146  1  0  0  0
 58 49  1  0  0  0
 58 59  1  0  0  0
 58147  1  0  0  0
 59 19  1  0  0  0
 59148  1  0  0  0
 60 47  1  0  0  0
 61 20  1  0  0  0
 61149  1  0  0  0
 62 55  1  0  0  0
 62 67  1  0  0  0
 62150  1  0  0  0
 63 57  1  0  0  0
 63151  1  0  0  0
 64 51  1  0  0  0
 64 68  1  0  0  0
 64152  1  0  0  0
 65153  1  0  0  0
 66 61  1  0  0  0
 66 22  1  0  0  0
 66154  1  0  0  0
 67 69  1  0  0  0
 67155  1  0  0  0
 68 66  1  0  0  0
 68156  1  0  0  0
 69 65  1  0  0  0
 69 25  1  0  0  0
 69157  1  0  0  0
M  END
$$$$
