AW9
  CCTOOLS-1004241127

 15 14  0  0  0  0  0  0  0  0999 V2000
    1.1510   -1.0040   -0.5950 O   0  0  0  0  0
    1.8240   -0.1130   -0.1190 C   0  0  0  0  0
    3.1150   -0.3390    0.1960 O   0  0  0  0  0
    1.2320    1.2190    0.1100 C   0  0  0  0  0
   -0.0810    1.4130   -0.0950 C   0  0  0  0  0
   -1.0340    0.3070    0.1190 C   0  0  0  0  0
   -0.6550   -0.7310    0.6240 O   0  0  0  0  0
   -2.3230    0.4470   -0.2460 O   0  0  0  0  0
   -3.2030   -0.6830   -0.0060 C   0  0  0  0  0
    3.4600   -1.2260    0.0250 H   0  0  0  0  0
    1.8540    2.0370    0.4420 H   0  0  0  0  0
   -0.4400    2.3800   -0.4160 H   0  0  0  0  0
   -2.8370   -1.5510   -0.5530 H   0  0  0  0  0
   -3.2240   -0.9070    1.0610 H   0  0  0  0  0
   -4.2100   -0.4380   -0.3450 H   0  0  0  0  0
  1  2  2  0  0  0
  2  3  1  0  0  0
  3 10  1  0  0  0
  4  2  1  0  0  0
  4  5  2  0  0  0
  4 11  1  0  0  0
  5  6  1  0  0  0
  5 12  1  0  0  0
  6  8  1  0  0  0
  6  7  2  0  0  0
  8  9  1  0  0  0
  9 13  1  0  0  0
  9 14  1  0  0  0
  9 15  1  0  0  0
M  END
$$$$
