B3P
  CCTOOLS-0919241031

 45 44  0  0  0  0  0  0  0  0999 V2000
   -0.0180    0.7360    0.0000 C   0  0  0  0  0
   -0.1490   -0.1370    1.2490 C   0  0  0  0  0
   -0.1490   -0.1370   -1.2490 C   0  0  0  0  0
   -0.0230    0.7010   -2.4480 N   0  0  0  0  0
   -0.1580   -0.1930   -3.6050 C   0  0  0  0  0
   -0.0350    0.6190   -4.8960 C   0  0  0  0  0
    0.9450   -1.2520   -3.5630 C   0  0  0  0  0
   -1.5250   -0.8790   -3.5630 C   0  0  0  0  0
   -0.0230    0.7010    2.4480 N   0  0  0  0  0
   -0.1580   -0.1930    3.6050 C   0  0  0  0  0
   -0.0350    0.6190    4.8960 C   0  0  0  0  0
    0.9450   -1.2520    3.5630 C   0  0  0  0  0
   -1.5250   -0.8790    3.5630 C   0  0  0  0  0
    1.2410    1.2590    4.9360 O   0  0  0  0  0
    2.2220   -0.6110    3.6020 O   0  0  0  0  0
   -2.5550    0.1090    3.6020 O   0  0  0  0  0
    1.2410    1.2590   -4.9360 O   0  0  0  0  0
    2.2220   -0.6110   -3.6020 O   0  0  0  0  0
   -2.5550    0.1090   -3.6020 O   0  0  0  0  0
   -0.8040    1.4910    0.0000 H   0  0  0  0  0
    0.9550    1.2250    0.0000 H   0  0  0  0  0
    0.6360   -0.8920    1.2490 H   0  0  0  0  0
   -1.1230   -0.6260    1.2490 H   0  0  0  0  0
    0.6360   -0.8920   -1.2490 H   0  0  0  0  0
   -1.1230   -0.6260   -1.2490 H   0  0  0  0  0
   -0.8250    1.3130   -2.4600 H   0  0  0  0  0
   -0.1350   -0.0450   -5.7540 H   0  0  0  0  0
   -0.8210    1.3730   -4.9260 H   0  0  0  0  0
    0.8580   -1.8310   -2.6430 H   0  0  0  0  0
    0.8450   -1.9160   -4.4210 H   0  0  0  0  0
   -1.6250   -1.5430   -4.4210 H   0  0  0  0  0
   -1.6120   -1.4580   -2.6430 H   0  0  0  0  0
   -0.8250    1.3130    2.4600 H   0  0  0  0  0
   -0.1350   -0.0450    5.7540 H   0  0  0  0  0
   -0.8210    1.3730    4.9260 H   0  0  0  0  0
    0.8450   -1.9160    4.4210 H   0  0  0  0  0
    0.8580   -1.8310    2.6430 H   0  0  0  0  0
   -1.6120   -1.4580    2.6430 H   0  0  0  0  0
   -1.6250   -1.5430    4.4210 H   0  0  0  0  0
    1.2770    1.7600    5.7620 H   0  0  0  0  0
    2.8870   -1.3120    3.5740 H   0  0  0  0  0
   -3.3980   -0.3640    3.5740 H   0  0  0  0  0
    1.2770    1.7600   -5.7620 H   0  0  0  0  0
    2.8870   -1.3120   -3.5740 H   0  0  0  0  0
   -3.3980   -0.3640   -3.5740 H   0  0  0  0  0
  1  2  1  0  0  0
  1  3  1  0  0  0
  1 20  1  0  0  0
  1 21  1  0  0  0
  2  9  1  0  0  0
  2 22  1  0  0  0
  2 23  1  0  0  0
  3  4  1  0  0  0
  3 24  1  0  0  0
  3 25  1  0  0  0
  4  5  1  0  0  0
  4 26  1  0  0  0
  5  6  1  0  0  0
  5  7  1  0  0  0
  5  8  1  0  0  0
  6 17  1  0  0  0
  6 27  1  0  0  0
  6 28  1  0  0  0
  7 18  1  0  0  0
  7 29  1  0  0  0
  7 30  1  0  0  0
  8 19  1  0  0  0
  8 31  1  0  0  0
  8 32  1  0  0  0
  9 10  1  0  0  0
  9 33  1  0  0  0
 10 11  1  0  0  0
 10 12  1  0  0  0
 10 13  1  0  0  0
 11 14  1  0  0  0
 11 34  1  0  0  0
 11 35  1  0  0  0
 12 15  1  0  0  0
 12 36  1  0  0  0
 12 37  1  0  0  0
 13 16  1  0  0  0
 13 38  1  0  0  0
 13 39  1  0  0  0
 14 40  1  0  0  0
 15 41  1  0  0  0
 16 42  1  0  0  0
 17 43  1  0  0  0
 18 44  1  0  0  0
 19 45  1  0  0  0
M  END
$$$$
