B40
  CCTOOLS-0919241031

 26 26  0  0  1  0  0  0  0  0999 V2000
   -1.8680   -0.9780    0.1790 N   0  0  0  0  0
   -1.7920    0.4500   -0.1540 C   0  0  0  0  0
   -3.1460    1.1090    0.1140 C   0  0  0  0  0
   -0.7200    1.1190    0.7080 C   0  0  0  0  0
    0.6330    0.5550    0.3550 C   0  0  0  0  0
    1.3910    1.1470   -0.6380 C   0  0  0  0  0
    1.1170   -0.5500    1.0280 C   0  0  0  0  0
    2.6310    0.6300   -0.9620 C   0  0  0  0  0
    2.3580   -1.0680    0.7050 C   0  0  0  0  0
    3.1130   -0.4800   -0.2920 C   0  0  0  0  0
   -2.3980   -1.7550   -0.9490 C   0  0  0  0  0
   -2.4190   -1.1270    1.0110 H   0  0  0  0  0
   -1.5350    0.5640   -1.2070 H   0  0  0  0  0
   -3.0900    2.1690   -0.1330 H   0  0  0  0  0
   -3.9100    0.6330   -0.5000 H   0  0  0  0  0
   -3.4040    0.9950    1.1670 H   0  0  0  0  0
   -0.7240    2.1940    0.5250 H   0  0  0  0  0
   -0.9290    0.9290    1.7600 H   0  0  0  0  0
    1.0140    2.0130   -1.1610 H   0  0  0  0  0
    0.5270   -1.0100    1.8070 H   0  0  0  0  0
    3.2230    1.0920   -1.7380 H   0  0  0  0  0
    2.7370   -1.9310    1.2310 H   0  0  0  0  0
    4.0820   -0.8840   -0.5450 H   0  0  0  0  0
   -3.3990   -1.4000   -1.1960 H   0  0  0  0  0
   -1.7460   -1.6320   -1.8140 H   0  0  0  0  0
   -2.4440   -2.8090   -0.6750 H   0  0  0  0  0
  1 11  1  0  0  0
  1  2  1  0  0  0
  1 12  1  0  0  0
  2  4  1  0  0  0
  2 13  1  0  0  0
  3  2  1  0  0  0
  3 14  1  0  0  0
  3 15  1  0  0  0
  3 16  1  0  0  0
  4  5  1  0  0  0
  4 17  1  0  0  0
  4 18  1  0  0  0
  5  6  1  0  0  0
  6  8  2  0  0  0
  6 19  1  0  0  0
  7  5  2  0  0  0
  7  9  1  0  0  0
  7 20  1  0  0  0
  8 21  1  0  0  0
  9 10  2  0  0  0
  9 22  1  0  0  0
 10  8  1  0  0  0
 10 23  1  0  0  0
 11 24  1  0  0  0
 11 25  1  0  0  0
 11 26  1  0  0  0
M  END
$$$$
