B6D
  CCTOOLS-1004241128

 35 35  0  0  1  0  0  0  0  0999 V2000
    1.1900    1.3030   -0.5110 C   0  0  0  0  0
    2.4310   -0.8050   -0.4390 N   0  0  0  0  0
   -0.0150   -0.8810   -0.4060 C   0  0  0  0  0
   -1.2620   -0.1140    0.0470 C   0  0  0  0  0
   -1.2090    1.3090   -0.5160 C   0  0  0  0  0
   -2.4200    2.1000   -0.0190 C   0  0  0  0  0
    3.6060   -0.6540    0.2050 C   0  0  0  0  0
    4.8380   -1.3580   -0.3010 C   0  0  0  0  0
   -4.8700   -1.3400   -0.3150 C   0  0  0  0  0
    1.2330   -0.1200    0.0530 C   0  0  0  0  0
    3.6710    0.0500    1.1910 O   0  0  0  0  0
   -2.4610   -0.7930   -0.4480 N   0  0  0  0  0
   -3.6360   -0.6410    0.1950 C   0  0  0  0  0
   -3.7000    0.0590    1.1830 O   0  0  0  0  0
   -0.0090    1.9490   -0.0770 O   0  0  0  0  0
   -0.0200   -2.1860    0.1760 O   0  0  0  0  0
    1.2560   -0.0800    1.1420 H   0  0  0  0  0
    1.2080    1.2630   -1.6000 H   0  0  0  0  0
   -0.0120   -0.9650   -1.4920 H   0  0  0  0  0
    2.3790   -1.3670   -1.2270 H   0  0  0  0  0
   -1.2220    1.2690   -1.6050 H   0  0  0  0  0
    5.3560   -0.7170   -1.0150 H   0  0  0  0  0
    5.5010   -1.5770    0.5370 H   0  0  0  0  0
    4.5500   -2.2890   -0.7900 H   0  0  0  0  0
   -1.2890   -0.0740    1.1360 H   0  0  0  0  0
   -2.4100   -1.3530   -1.2390 H   0  0  0  0  0
   -5.6300   -0.6000   -0.5650 H   0  0  0  0  0
   -4.6190   -1.9180   -1.2040 H   0  0  0  0  0
   -5.2540   -2.0080    0.4560 H   0  0  0  0  0
   -2.3820    3.1130   -0.4200 H   0  0  0  0  0
   -3.3350    1.6110   -0.3530 H   0  0  0  0  0
   -2.4060    2.1390    1.0710 H   0  0  0  0  0
    2.3230    2.0360   -0.0410 O   0  0  0  0  0
    0.7460   -2.7260   -0.0640 H   0  0  0  0  0
    2.3610    2.9480   -0.3600 H   0  0  0  0  0
  1 10  1  0  0  0
  1 33  1  0  0  0
  2  7  1  0  0  0
  3 16  1  0  0  0
  3 10  1  0  0  0
  4  3  1  0  0  0
  4 25  1  0  0  0
  5  4  1  0  0  0
  5 15  1  0  0  0
  6  5  1  0  0  0
  6 32  1  0  0  0
  7 11  2  0  0  0
  7  8  1  0  0  0
  8 22  1  0  0  0
  8 24  1  0  0  0
  9 28  1  0  0  0
  9 13  1  0  0  0
 10  2  1  0  0  0
 10 17  1  0  0  0
 12  4  1  0  0  0
 13 12  1  0  0  0
 13 14  2  0  0  0
 15  1  1  0  0  0
 16 34  1  0  0  0
 18  1  1  0  0  0
 19  3  1  0  0  0
 20  2  1  0  0  0
 21  5  1  0  0  0
 23  8  1  0  0  0
 26 12  1  0  0  0
 27  9  1  0  0  0
 29  9  1  0  0  0
 30  6  1  0  0  0
 31  6  1  0  0  0
 33 35  1  0  0  0
M  END
$$$$
