BJU
  CCTOOLS-1004241119

 51 50  0  0  0  0  0  0  0  0999 V2000
    0.1620    0.3910   -0.0000 C   0  0  0  0  0
   -3.5780   -0.5220    0.0000 C   0  0  0  0  0
   11.4120   -0.4010    0.0000 C   0  0  0  0  0
   10.1560    0.4720   -0.0000 C   0  0  0  0  0
    8.9140   -0.4210    0.0000 C   0  0  0  0  0
    7.6580    0.4520   -0.0000 C   0  0  0  0  0
    6.4160   -0.4420    0.0000 C   0  0  0  0  0
    5.1590    0.4320   -0.0000 C   0  0  0  0  0
    3.9170   -0.4620    0.0000 C   0  0  0  0  0
    2.6610    0.4110   -0.0000 C   0  0  0  0  0
    1.4190   -0.4820    0.0000 C   0  0  0  0  0
   -1.0800   -0.5020    0.0000 C   0  0  0  0  0
   -2.3360    0.3710   -0.0000 C   0  0  0  0  0
   -4.8150    0.3380   -0.0000 C   0  0  0  0  0
   -6.0350   -0.2360    0.0000 N   0  0  0  0  0
   -4.7140    1.5460   -0.0010 O   0  0  0  0  0
    0.1570    1.0210    0.8890 H   0  0  0  0  0
    0.1570    1.0200   -0.8910 H   0  0  0  0  0
   -3.5730   -1.1520   -0.8890 H   0  0  0  0  0
   -3.5730   -1.1510    0.8910 H   0  0  0  0  0
   11.4170   -1.0300    0.8910 H   0  0  0  0  0
   11.4170   -1.0310   -0.8890 H   0  0  0  0  0
   12.2970    0.2350   -0.0000 H   0  0  0  0  0
   10.1510    1.1020    0.8890 H   0  0  0  0  0
   10.1510    1.1010   -0.8910 H   0  0  0  0  0
    8.9190   -1.0510   -0.8890 H   0  0  0  0  0
    8.9190   -1.0500    0.8910 H   0  0  0  0  0
    7.6530    1.0820    0.8890 H   0  0  0  0  0
    7.6530    1.0810   -0.8910 H   0  0  0  0  0
    6.4210   -1.0710   -0.8890 H   0  0  0  0  0
    6.4210   -1.0700    0.8910 H   0  0  0  0  0
    5.1540    1.0610    0.8890 H   0  0  0  0  0
    5.1540    1.0600   -0.8910 H   0  0  0  0  0
    3.9220   -1.0920   -0.8890 H   0  0  0  0  0
    3.9220   -1.0910    0.8910 H   0  0  0  0  0
    2.6560    1.0410    0.8890 H   0  0  0  0  0
    2.6560    1.0400   -0.8910 H   0  0  0  0  0
    1.4240   -1.1110    0.8910 H   0  0  0  0  0
    1.4240   -1.1120   -0.8890 H   0  0  0  0  0
   -1.0740   -1.1320   -0.8890 H   0  0  0  0  0
   -1.0740   -1.1310    0.8910 H   0  0  0  0  0
   -2.3410    1.0000   -0.8910 H   0  0  0  0  0
   -2.3410    1.0010    0.8890 H   0  0  0  0  0
   -6.1160   -1.2030    0.0010 H   0  0  0  0  0
   -7.2380    0.6000   -0.0000 C   0  0  0  0  0
   -8.4610   -0.2800    0.0000 C   0  0  0  0  0
   -9.6850    0.2720   -0.0000 O   0  0  0  0  0
  -10.4390   -0.3330    0.0000 H   0  0  0  0  0
   -8.3410   -1.4820    0.0010 O   0  0  0  0  0
   -7.2430    1.2300    0.8890 H   0  0  0  0  0
   -7.2430    1.2290   -0.8910 H   0  0  0  0  0
  1 12  1  0  0  0
  1 17  1  0  0  0
  1 18  1  0  0  0
  2 14  1  0  0  0
  2 19  1  0  0  0
  2 20  1  0  0  0
  3 21  1  0  0  0
  3 22  1  0  0  0
  3 23  1  0  0  0
  4  3  1  0  0  0
  4 24  1  0  0  0
  4 25  1  0  0  0
  5  4  1  0  0  0
  5 26  1  0  0  0
  5 27  1  0  0  0
  6  7  1  0  0  0
  6  5  1  0  0  0
  6 28  1  0  0  0
  6 29  1  0  0  0
  7  8  1  0  0  0
  7 30  1  0  0  0
  7 31  1  0  0  0
  8  9  1  0  0  0
  8 32  1  0  0  0
  8 33  1  0  0  0
  9 10  1  0  0  0
  9 34  1  0  0  0
  9 35  1  0  0  0
 10 11  1  0  0  0
 10 36  1  0  0  0
 10 37  1  0  0  0
 11  1  1  0  0  0
 11 38  1  0  0  0
 11 39  1  0  0  0
 12 13  1  0  0  0
 12 40  1  0  0  0
 12 41  1  0  0  0
 13  2  1  0  0  0
 13 42  1  0  0  0
 13 43  1  0  0  0
 14 16  2  0  0  0
 14 15  1  0  0  0
 15 44  1  0  0  0
 15 45  1  0  0  0
 45 46  1  0  0  0
 45 50  1  0  0  0
 45 51  1  0  0  0
 46 47  1  0  0  0
 46 49  2  0  0  0
 47 48  1  0  0  0
M  END
$$$$
