BNG
  CCTOOLS-0919241034

 51 51  0  0  1  0  0  0  0  0999 V2000
    0.6400    0.1980   -2.2600 C   0  0  0  0  0
    1.5060   -0.2110   -3.4540 C   0  0  0  0  0
    0.8440    0.2840   -4.7440 C   0  0  0  0  0
   -0.6000   -0.2270   -4.7810 C   0  0  0  0  0
   -1.3070    0.1820   -3.4870 C   0  0  0  0  0
   -2.7590   -0.2960   -3.5290 C   0  0  0  0  0
    0.4180    0.1810    0.0230 C   0  0  0  0  0
    1.0340   -0.2490    1.3550 C   0  0  0  0  0
    0.1250    0.1910    2.5040 C   0  0  0  0  0
    0.7410   -0.2400    3.8360 C   0  0  0  0  0
   -0.1670    0.2000    4.9850 C   0  0  0  0  0
    0.4480   -0.2300    6.3180 C   0  0  0  0  0
   -0.4600    0.2100    7.4660 C   0  0  0  0  0
    0.1550   -0.2200    8.7990 C   0  0  0  0  0
   -0.7530    0.2200    9.9480 C   0  0  0  0  0
    1.2670   -0.2300   -1.0490 O   0  0  0  0  0
    2.8030    0.3740   -3.3270 O   0  0  0  0  0
    1.5580   -0.2150   -5.8760 O   0  0  0  0  0
   -1.2830    0.3420   -5.8990 O   0  0  0  0  0
   -0.6460   -0.4060   -2.3680 O   0  0  0  0  0
   -3.4240    0.0910   -2.3240 O   0  0  0  0  0
    0.5310    1.2830   -2.2470 H   0  0  0  0  0
    1.5970   -1.2960   -3.4840 H   0  0  0  0  0
    0.8460    1.3740   -4.7620 H   0  0  0  0  0
   -0.6000   -1.3130   -4.8680 H   0  0  0  0  0
   -1.2860    1.2680   -3.3900 H   0  0  0  0  0
   -3.2650    0.1530   -4.3830 H   0  0  0  0  0
   -2.7820   -1.3810   -3.6230 H   0  0  0  0  0
   -0.5620   -0.2820   -0.0900 H   0  0  0  0  0
    0.3110    1.2650    0.0060 H   0  0  0  0  0
    2.0140    0.2130    1.4690 H   0  0  0  0  0
    1.1410   -1.3340    1.3720 H   0  0  0  0  0
   -0.8540   -0.2720    2.3900 H   0  0  0  0  0
    0.0180    1.2750    2.4870 H   0  0  0  0  0
    1.7210    0.2230    3.9500 H   0  0  0  0  0
    0.8480   -1.3240    3.8530 H   0  0  0  0  0
   -1.1470   -0.2620    4.8710 H   0  0  0  0  0
   -0.2740    1.2850    4.9680 H   0  0  0  0  0
    1.4280    0.2320    6.4310 H   0  0  0  0  0
    0.5550   -1.3150    6.3340 H   0  0  0  0  0
   -1.4400   -0.2520    7.3530 H   0  0  0  0  0
   -0.5670    1.2950    7.4500 H   0  0  0  0  0
    1.1350    0.2420    8.9130 H   0  0  0  0  0
    0.2620   -1.3050    8.8160 H   0  0  0  0  0
   -0.3140   -0.0860   10.8970 H   0  0  0  0  0
   -0.8600    1.3050    9.9310 H   0  0  0  0  0
   -1.7330   -0.2420    9.8340 H   0  0  0  0  0
    3.1830    0.0360   -2.5040 H   0  0  0  0  0
    2.4590    0.1300   -5.8130 H   0  0  0  0  0
   -0.8050    0.0600   -6.6920 H   0  0  0  0  0
   -4.3340   -0.2280   -2.3920 H   0  0  0  0  0
  1  2  1  0  0  0
  1 16  1  0  0  0
  1 20  1  0  0  0
  1 22  1  0  0  0
  2  3  1  0  0  0
  2 17  1  0  0  0
  2 23  1  0  0  0
  3  4  1  0  0  0
  3 18  1  0  0  0
  3 24  1  0  0  0
  4  5  1  0  0  0
  4 19  1  0  0  0
  4 25  1  0  0  0
  5  6  1  0  0  0
  5 20  1  0  0  0
  5 26  1  0  0  0
  6 21  1  0  0  0
  6 27  1  0  0  0
  6 28  1  0  0  0
  7  8  1  0  0  0
  7 16  1  0  0  0
  7 29  1  0  0  0
  7 30  1  0  0  0
  8  9  1  0  0  0
  8 31  1  0  0  0
  8 32  1  0  0  0
  9 10  1  0  0  0
  9 33  1  0  0  0
  9 34  1  0  0  0
 10 11  1  0  0  0
 10 35  1  0  0  0
 10 36  1  0  0  0
 11 12  1  0  0  0
 11 37  1  0  0  0
 11 38  1  0  0  0
 12 13  1  0  0  0
 12 39  1  0  0  0
 12 40  1  0  0  0
 13 14  1  0  0  0
 13 41  1  0  0  0
 13 42  1  0  0  0
 14 15  1  0  0  0
 14 43  1  0  0  0
 14 44  1  0  0  0
 15 45  1  0  0  0
 15 46  1  0  0  0
 15 47  1  0  0  0
 17 48  1  0  0  0
 18 49  1  0  0  0
 19 50  1  0  0  0
 21 51  1  0  0  0
M  END
$$$$
