CAU
  CCTOOLS-0919241037

 44 46  0  0  1  0  0  0  0  0999 V2000
    2.3430   -0.9770   -1.1490 O   0  0  0  0  0
    2.4170   -0.2440    0.0750 C   0  0  0  0  0
    3.8080    0.3790    0.2130 C   0  0  0  0  0
    4.8220   -0.6830    0.2160 N   0  0  0  0  0
    6.1730   -0.1210    0.3480 C   0  0  0  0  0
    7.1050   -1.1690    0.9590 C   0  0  0  0  0
    6.6940    0.2820   -1.0330 C   0  0  0  0  0
    1.3600    0.8630    0.0710 C   0  0  0  0  0
    0.0570    0.2770    0.0600 O   0  0  0  0  0
   -1.0020    1.1280    0.0550 C   0  0  0  0  0
   -0.7940    2.4960    0.0620 C   0  0  0  0  0
   -1.8730    3.3640    0.0570 C   0  0  0  0  0
   -3.1640    2.8800    0.0470 C   0  0  0  0  0
   -3.3960    1.5070    0.0400 C   0  0  0  0  0
   -2.3060    0.6260    0.0380 C   0  0  0  0  0
   -4.5610    0.7610    0.0300 N   0  0  0  0  0
   -4.2640   -0.5910    0.0270 C   0  0  0  0  0
   -2.8680   -0.7370    0.0310 C   0  0  0  0  0
   -5.0680   -1.7260    0.0170 C   0  0  0  0  0
   -4.4920   -2.9790    0.0160 C   0  0  0  0  0
   -3.1130   -3.1220    0.0250 C   0  0  0  0  0
   -2.3000   -2.0090    0.0260 C   0  0  0  0  0
    2.4950   -0.4400   -1.9390 H   0  0  0  0  0
    2.2360   -0.9170    0.9130 H   0  0  0  0  0
    3.9890    1.0520   -0.6250 H   0  0  0  0  0
    3.8640    0.9390    1.1470 H   0  0  0  0  0
    4.6380   -1.3560    0.9450 H   0  0  0  0  0
    6.1400    0.7570    0.9940 H   0  0  0  0  0
    7.1380   -2.0470    0.3120 H   0  0  0  0  0
    8.1070   -0.7520    1.0560 H   0  0  0  0  0
    6.7340   -1.4560    1.9420 H   0  0  0  0  0
    6.7270   -0.5950   -1.6790 H   0  0  0  0  0
    6.0300    1.0290   -1.4690 H   0  0  0  0  0
    7.6960    0.6990   -0.9360 H   0  0  0  0  0
    1.4750    1.4770    0.9640 H   0  0  0  0  0
    1.4880    1.4840   -0.8160 H   0  0  0  0  0
    0.2120    2.8880    0.0710 H   0  0  0  0  0
   -1.7020    4.4310    0.0620 H   0  0  0  0  0
   -3.9970    3.5670    0.0430 H   0  0  0  0  0
   -5.4570    1.1320    0.0250 H   0  0  0  0  0
   -6.1430   -1.6260    0.0100 H   0  0  0  0  0
   -5.1220   -3.8570    0.0100 H   0  0  0  0  0
   -2.6750   -4.1080    0.0250 H   0  0  0  0  0
   -1.2260   -2.1220    0.0270 H   0  0  0  0  0
  1 23  1  0  0  0
  2  1  1  0  0  0
  2 24  1  0  0  0
  3  4  1  0  0  0
  3  2  1  0  0  0
  3 25  1  0  0  0
  3 26  1  0  0  0
  4 27  1  0  0  0
  5  4  1  0  0  0
  5  7  1  0  0  0
  5 28  1  0  0  0
  6  5  1  0  0  0
  6 29  1  0  0  0
  6 30  1  0  0  0
  6 31  1  0  0  0
  7 32  1  0  0  0
  7 33  1  0  0  0
  7 34  1  0  0  0
  8  2  1  0  0  0
  8 35  1  0  0  0
  8 36  1  0  0  0
  9  8  1  0  0  0
 10  9  1  0  0  0
 11 10  2  0  0  0
 11 37  1  0  0  0
 12 11  1  0  0  0
 12 38  1  0  0  0
 13 12  2  0  0  0
 13 14  1  0  0  0
 13 39  1  0  0  0
 14 16  1  0  0  0
 14 15  2  0  0  0
 15 10  1  0  0  0
 15 18  1  0  0  0
 16 17  1  0  0  0
 16 40  1  0  0  0
 17 18  2  0  0  0
 17 19  1  0  0  0
 18 22  1  0  0  0
 19 20  2  0  0  0
 19 41  1  0  0  0
 20 21  1  0  0  0
 20 42  1  0  0  0
 21 43  1  0  0  0
 22 21  2  0  0  0
 22 44  1  0  0  0
M  END
$$$$
