CGZ
  CCTOOLS-0919241038

 40 42  0  0  1  0  0  0  0  0999 V2000
    4.0530    0.4270   -0.9500 N   0  0  0  0  0
    1.0730    0.0330    0.3500 C   0  0  0  0  0
    2.2710    0.8900    0.6660 C   0  0  0  0  0
    3.5200    0.1930    0.1920 C   0  0  0  0  0
    5.2540   -0.4010   -1.1290 C   0  0  0  0  0
    5.3430   -1.2090    0.1810 C   0  0  0  0  0
    0.7840    2.8440    0.3020 C   0  0  0  0  0
    0.1200   -2.1770    0.3140 C   0  0  0  0  0
    4.1750   -0.7370    0.9440 N   0  0  0  0  0
    2.1580    2.2470   -0.0260 C   0  0  0  0  0
   -3.8890   -1.2370    0.3070 O   0  0  0  0  0
   -1.1770   -0.2920   -0.4050 C   0  0  0  0  0
   -0.1020    0.5550   -0.1410 C   0  0  0  0  0
   -3.3760    1.0890    1.5080 C   0  0  0  0  0
   -2.3740    0.2370   -0.9000 N   0  0  0  0  0
   -1.0660   -1.6590   -0.1800 C   0  0  0  0  0
   -2.1160   -2.4830   -0.4400 O   0  0  0  0  0
   -0.2820    2.0240   -0.4210 C   0  0  0  0  0
    1.1800   -1.3340    0.5770 C   0  0  0  0  0
   -4.7330    0.8220   -0.7740 O   0  0  0  0  0
   -3.7570    0.1460    0.0060 S   0  0  0  0  0
    2.3310    1.0410    1.7440 H   0  0  0  0  0
    5.1360   -1.0680   -1.9830 H   0  0  0  0  0
    6.1360    0.2270   -1.2540 H   0  0  0  0  0
    5.2660   -2.2780   -0.0190 H   0  0  0  0  0
    6.2670   -0.9820    0.7130 H   0  0  0  0  0
    0.6130    2.8020    1.3780 H   0  0  0  0  0
    0.7430    3.8790   -0.0360 H   0  0  0  0  0
    0.2150   -3.2380    0.4940 H   0  0  0  0  0
    3.9150   -1.0360    1.8290 H   0  0  0  0  0
    2.9430    2.9110    0.3370 H   0  0  0  0  0
    2.2540    2.1180   -1.1040 H   0  0  0  0  0
   -3.2190    2.1360    1.2490 H   0  0  0  0  0
   -4.2080    1.0100    2.2080 H   0  0  0  0  0
   -2.4740    0.6890    1.9690 H   0  0  0  0  0
   -2.3950    0.6560   -1.7750 H   0  0  0  0  0
   -2.6530   -2.6930    0.3360 H   0  0  0  0  0
   -1.2690    2.3370   -0.0790 H   0  0  0  0  0
   -0.2030    2.1980   -1.4940 H   0  0  0  0  0
    2.1030   -1.7400    0.9640 H   0  0  0  0  0
  2  3  1  0  0  0
  2 13  2  0  0  0
  3 10  1  0  0  0
  3 22  1  0  0  0
  4  1  2  0  0  0
  4  3  1  0  0  0
  5  1  1  0  0  0
  5 23  1  0  0  0
  5 24  1  0  0  0
  6  9  1  0  0  0
  6  5  1  0  0  0
  6 25  1  0  0  0
  6 26  1  0  0  0
  7 18  1  0  0  0
  7 27  1  0  0  0
  7 28  1  0  0  0
  8 19  2  0  0  0
  8 16  1  0  0  0
  8 29  1  0  0  0
  9  4  1  0  0  0
  9 30  1  0  0  0
 10  7  1  0  0  0
 10 31  1  0  0  0
 10 32  1  0  0  0
 12 13  1  0  0  0
 12 15  1  0  0  0
 13 18  1  0  0  0
 14 33  1  0  0  0
 14 34  1  0  0  0
 14 35  1  0  0  0
 15 21  1  0  0  0
 15 36  1  0  0  0
 16 17  1  0  0  0
 16 12  2  0  0  0
 17 37  1  0  0  0
 18 38  1  0  0  0
 18 39  1  0  0  0
 19  2  1  0  0  0
 19 40  1  0  0  0
 21 14  1  0  0  0
 21 20  2  0  0  0
 21 11  2  0  0  0
M  END
$$$$
