CHT
  CCTOOLS-1004241122

 21 20  0  0  0  0  0  0  0  0999 V2000
    1.5390   -0.7710    0.0510 C   0  0  0  0  0
    0.2000   -0.7390    0.7900 C   0  0  0  0  0
   -0.8700   -0.5460   -1.3480 C   0  0  0  0  0
   -0.3420    1.4260   -0.0890 C   0  0  0  0  0
   -2.0910   -0.0380    0.6530 C   0  0  0  0  0
    2.1010    0.5430    0.0250 O   0  0  0  0  0
   -0.7760    0.0260    0.0010 N   0  3  0  0  0
    2.2210   -1.4480    0.5660 H   0  0  0  0  0
    1.3830   -1.1200   -0.9700 H   0  0  0  0  0
    0.3320   -0.2640    1.7620 H   0  0  0  0  0
   -0.1630   -1.7570    0.9290 H   0  0  0  0  0
    0.1050   -0.4980   -1.8320 H   0  0  0  0  0
   -1.1920   -1.5850   -1.2810 H   0  0  0  0  0
   -1.5940    0.0210   -1.9340 H   0  0  0  0  0
   -1.1440    2.0280   -0.5180 H   0  0  0  0  0
   -0.1030    1.7980    0.9070 H   0  0  0  0  0
    0.5410    1.4930   -0.7240 H   0  0  0  0  0
   -2.4120   -1.0780    0.7210 H   0  0  0  0  0
   -2.0210    0.3860    1.6550 H   0  0  0  0  0
   -2.8150    0.5290    0.0680 H   0  0  0  0  0
    2.9420    0.4780   -0.4480 H   0  0  0  0  0
  1  2  1  0  0  0
  1  6  1  0  0  0
  1  8  1  0  0  0
  1  9  1  0  0  0
  2  7  1  0  0  0
  2 10  1  0  0  0
  2 11  1  0  0  0
  3  7  1  0  0  0
  3 12  1  0  0  0
  3 13  1  0  0  0
  3 14  1  0  0  0
  4  7  1  0  0  0
  4 15  1  0  0  0
  4 16  1  0  0  0
  4 17  1  0  0  0
  5  7  1  0  0  0
  5 18  1  0  0  0
  5 19  1  0  0  0
  5 20  1  0  0  0
  6 21  1  0  0  0
M  CHG  1   7   1
M  END
$$$$
