CTI
  CCTOOLS-1004241124

 44 48  0  0  0  0  0  0  0  0999 V2000
    2.8950    0.9370   -0.2420 C   0  0  0  0  0
    2.0000   -0.0980    0.0290 C   0  0  0  0  0
    2.5160   -1.4170    0.1310 C   0  0  0  0  0
    3.9010   -1.6270    0.1870 C   0  0  0  0  0
    0.5660    0.1000    0.2420 C   0  0  0  0  0
   -0.2620   -1.0470    0.1630 C   0  0  0  0  0
    0.2960   -2.3320    0.0970 C   0  0  0  0  0
    1.6340   -2.5190    0.1190 C   0  0  0  0  0
    0.0050    1.2600    0.5860 N   0  3  0  0  0
   -1.7130   -0.8560    0.1080 C   0  0  0  0  0
   -2.2040    0.4680    0.2390 C   0  0  0  0  0
   -1.2830    1.4940    0.5070 C   0  0  0  0  0
    0.7940    2.3300    1.2040 C   0  0  0  0  0
   -4.4410   -0.3640   -0.0660 C   0  0  0  0  0
   -3.9470   -1.6640   -0.1440 C   0  0  0  0  0
   -2.6050   -1.9120   -0.0630 C   0  0  0  0  0
   -3.5820    0.7060    0.1180 C   0  0  0  0  0
   -4.0720    1.9720    0.1800 O   0  0  0  0  0
   -4.1760    2.6890   -1.0510 C   0  0  0  0  0
   -5.7790   -0.1450   -0.1710 O   0  0  0  0  0
   -6.6110   -1.2910   -0.3600 C   0  0  0  0  0
    4.2540    0.7090   -0.2530 C   0  0  0  0  0
    4.7620   -0.5750   -0.0120 C   0  0  0  0  0
    5.3120    1.5430   -0.4620 O   0  0  0  0  0
    6.4500    0.7140   -0.7340 C   0  0  0  0  0
    6.1220   -0.4930   -0.0290 O   0  0  0  0  0
    2.5470    1.9240   -0.5130 H   0  0  0  0  0
    4.2900   -2.6160    0.3890 H   0  0  0  0  0
   -0.3540   -3.1920    0.0250 H   0  0  0  0  0
    2.0340   -3.5220    0.1260 H   0  0  0  0  0
   -1.6350    2.5040    0.6530 H   0  0  0  0  0
    1.2030    2.9750    0.4260 H   0  0  0  0  0
    0.1550    2.9170    1.8630 H   0  0  0  0  0
    1.6090    1.8940    1.7810 H   0  0  0  0  0
   -4.6330   -2.4880   -0.2710 H   0  0  0  0  0
   -2.2410   -2.9270   -0.1310 H   0  0  0  0  0
   -3.1880    2.7790   -1.5030 H   0  0  0  0  0
   -4.8380    2.1510   -1.7300 H   0  0  0  0  0
   -4.5800    3.6830   -0.8600 H   0  0  0  0  0
   -6.3250   -1.8010   -1.2800 H   0  0  0  0  0
   -6.4910   -1.9700    0.4840 H   0  0  0  0  0
   -7.6530   -0.9760   -0.4280 H   0  0  0  0  0
    6.5490    0.5250   -1.8030 H   0  0  0  0  0
    7.3610    1.1620   -0.3350 H   0  0  0  0  0
  1  2  2  0  0  0
  1 22  1  0  0  0
  1 27  1  0  0  0
  2  3  1  0  0  0
  2  5  1  0  0  0
  3  4  2  0  0  0
  3  8  1  0  0  0
  4 23  1  0  0  0
  4 28  1  0  0  0
  5  6  2  0  0  0
  5  9  1  0  0  0
  6  7  1  0  0  0
  6 10  1  0  0  0
  7  8  2  0  0  0
  7 29  1  0  0  0
  8 30  1  0  0  0
  9 12  2  0  0  0
  9 13  1  0  0  0
 10 11  2  0  0  0
 10 16  1  0  0  0
 11 12  1  0  0  0
 11 17  1  0  0  0
 12 31  1  0  0  0
 13 32  1  0  0  0
 13 33  1  0  0  0
 13 34  1  0  0  0
 14 15  1  0  0  0
 14 17  2  0  0  0
 14 20  1  0  0  0
 15 16  2  0  0  0
 15 35  1  0  0  0
 16 36  1  0  0  0
 17 18  1  0  0  0
 18 19  1  0  0  0
 19 37  1  0  0  0
 19 38  1  0  0  0
 19 39  1  0  0  0
 20 21  1  0  0  0
 21 40  1  0  0  0
 21 41  1  0  0  0
 21 42  1  0  0  0
 22 23  2  0  0  0
 22 24  1  0  0  0
 23 26  1  0  0  0
 24 25  1  0  0  0
 25 26  1  0  0  0
 25 43  1  0  0  0
 25 44  1  0  0  0
M  CHG  1   9   1
M  END
$$$$
