CTQ
  CCTOOLS-0919241039

328330  0  0  1  0  0  0  0  0999 V2000
   11.8230   -2.4620    2.2360 C   0  0  0  0  0
    8.0350   -2.8120    1.6450 C   0  0  0  0  0
    5.1490   -2.8260   -0.8080 C   0  0  0  0  0
    6.3550   -6.1080   -2.4220 C   0  0  0  0  0
    7.7540   -6.5970   -2.7980 C   0  0  0  0  0
    7.6570   -7.9930   -3.4170 C   0  0  0  0  0
    8.9600   -9.8780   -4.4120 C   0  0  0  0  0
   10.2630  -11.7640   -5.4080 C   0  0  0  0  0
   11.5660  -13.6490   -6.4030 C   0  0  0  0  0
   21.9110   -1.9650    7.2540 C   0  0  0  0  0
   21.0740   -1.8970    5.9750 C   0  0  0  0  0
   19.5980   -2.1060    6.3190 C   0  0  0  0  0
   18.7610   -2.0390    5.0400 C   0  0  0  0  0
   17.2850   -2.2470    5.3840 C   0  0  0  0  0
   16.4490   -2.1800    4.1050 C   0  0  0  0  0
   14.9730   -2.3880    4.4500 C   0  0  0  0  0
   14.1360   -2.3210    3.1700 C   0  0  0  0  0
   12.6600   -2.5300    3.5150 C   0  0  0  0  0
   10.3470   -2.6710    2.5800 C   0  0  0  0  0
    9.5100   -2.6030    1.3010 C   0  0  0  0  0
    7.2100   -2.7460    0.3850 C   0  0  0  0  0
    7.7480   -2.5520   -0.6790 O   0  0  0  0  0
    5.8790   -2.9020    0.4450 O   0  0  0  0  0
    5.0520   -4.2220   -1.4270 C   0  0  0  0  0
    6.4520   -4.7120   -1.8030 C   0  0  0  0  0
    9.0570   -8.4830   -3.7930 C   0  0  0  0  0
   10.3600  -10.3680   -4.7890 C   0  0  0  0  0
   11.6630  -12.2530   -5.7840 C   0  0  0  0  0
    3.7420   -2.2860   -0.5460 C   0  0  0  0  0
    3.8340   -0.8650   -0.0520 C   0  0  0  0  0
    4.9140   -0.3700    0.1680 O   0  0  0  0  0
    2.7150   -0.1490    0.1450 O   0  0  0  0  0
    2.8810    1.2370    0.5440 C   0  0  0  0  0
    1.7040    2.0650    0.0210 C   0  0  0  0  0
    0.4100    1.5610    0.6640 C   0  0  0  0  0
    0.5210    1.6460    2.0860 O   0  0  0  0  0
    1.5760    0.8540    2.6360 C   0  0  0  0  0
    2.9170    1.3300    2.0720 C   0  0  0  0  0
    3.9680    0.5030    2.5760 O   0  0  0  0  0
    5.1970    1.0770    3.4440 P   0  0  0  0  0
    6.2510   -0.1050    3.7290 O   0  0  0  0  0
    5.8650    2.1640    2.6940 O   0  0  0  0  0
    4.6440    1.6520    4.8430 O   0  0  0  0  0
    1.5820    1.0000    4.1590 C   0  0  0  0  0
    0.3770    0.4510    4.6960 O   0  0  0  0  0
    0.2280    0.6410    6.1040 C   0  0  0  0  0
   -1.1030    0.0380    6.5620 C   0  0  0  0  0
   -1.2830    0.2990    8.0610 C   0  0  0  0  0
   -1.2080    1.8070    8.3180 C   0  0  0  0  0
    0.1260    2.3420    7.7920 C   0  0  0  0  0
    0.2440    2.0390    6.4000 O   0  0  0  0  0
    0.1840    3.8570    7.9910 C   0  0  0  0  0
    1.4610    4.4080    7.3540 C   0  0  0  0  0
    1.5730    5.8030    7.6400 O   0  0  0  0  0
   -0.9550    4.4620    7.3750 O   0  0  0  0  0
   -2.2840    2.4610    7.6420 O   0  0  0  0  0
   -0.2460   -0.3620    8.7900 O   0  0  0  0  0
    1.3630   -0.0390    6.8260 C   0  0  0  0  0
    1.4590   -1.3780    6.8150 O   0  0  0  0  0
    2.1860    0.6210    7.4150 O   0  0  0  0  0
    0.1860    0.2020    0.2840 O   0  0  0  0  0
   -1.0680   -0.3250    0.7200 C   0  0  0  0  0
   -2.1460   -0.0000   -0.3170 C   0  0  0  0  0
   -3.5130   -0.4420    0.2120 C   0  0  0  0  0
   -4.5770   -0.1680   -0.8550 C   0  0  0  0  0
   -4.1900   -0.8970   -2.1450 C   0  0  0  0  0
   -2.7970   -0.4380   -2.5830 C   0  0  0  0  0
   -1.8610   -0.6930   -1.5340 O   0  0  0  0  0
   -2.4050   -1.1550   -3.7560 O   0  0  0  0  0
   -1.3190   -0.5960   -4.8040 P   0  0  0  0  0
    0.1200   -0.5020   -4.0860 O   0  0  0  0  0
   -1.2260   -1.5930   -6.0640 O   0  0  0  0  0
   -1.7270    0.7490   -5.2670 O   0  0  0  0  0
   -4.1760   -2.3430   -1.9060 N   0  0  0  0  0
   -5.2990   -3.0660   -2.0870 C   0  0  0  0  0
   -6.3200   -2.5210   -2.4480 O   0  0  0  0  0
   -5.2850   -4.5530   -1.8400 C   0  0  0  0  0
   -6.6750   -5.1290   -2.1170 C   0  0  0  0  0
   -6.6300   -6.6530   -1.9880 C   0  0  0  0  0
   -7.9870   -7.2380   -2.3850 C   0  0  0  0  0
   -7.9430   -8.7620   -2.2570 C   0  0  0  0  0
   -9.2990   -9.3470   -2.6540 C   0  0  0  0  0
   -9.2550  -10.8710   -2.5250 C   0  0  0  0  0
  -10.6110  -11.4560   -2.9230 C   0  0  0  0  0
  -10.5670  -12.9800   -2.7940 C   0  0  0  0  0
  -11.9240  -13.5650   -3.1910 C   0  0  0  0  0
  -11.8790  -15.0890   -3.0630 C   0  0  0  0  0
  -13.2360  -15.6750   -3.4600 C   0  0  0  0  0
  -13.1910  -17.1980   -3.3310 C   0  0  0  0  0
   -7.6070   -4.5980   -1.1730 O   0  0  0  0  0
   -5.8650   -0.6520   -0.3910 O   0  0  0  0  0
   -6.6320    0.2130    0.2900 C   0  0  0  0  0
   -6.2400    1.3380    0.4930 O   0  0  0  0  0
   -7.9820   -0.2180    0.8030 C   0  0  0  0  0
   -8.6440    0.9480    1.5390 C   0  0  0  0  0
  -10.0640    0.5520    1.9510 C   0  0  0  0  0
  -10.7690    1.7570    2.5760 C   0  0  0  0  0
  -12.1880    1.3600    2.9870 C   0  0  0  0  0
  -12.8940    2.5660    3.6120 C   0  0  0  0  0
  -14.3130    2.1690    4.0240 C   0  0  0  0  0
  -15.0190    3.3740    4.6480 C   0  0  0  0  0
  -16.4380    2.9770    5.0600 C   0  0  0  0  0
  -17.1430    4.1830    5.6850 C   0  0  0  0  0
  -18.5620    3.7860    6.0960 C   0  0  0  0  0
  -19.2680    4.9910    6.7210 C   0  0  0  0  0
  -20.6870    4.5950    7.1330 C   0  0  0  0  0
   -7.8830    1.2700    2.7050 O   0  0  0  0  0
   -3.4810   -1.8390    0.5100 O   0  0  0  0  0
    1.6150    1.9240   -1.4350 N   0  0  0  0  0
    1.0320    2.8910   -2.1710 C   0  0  0  0  0
    0.5820    3.8780   -1.6290 O   0  0  0  0  0
    0.9400    2.7460   -3.6680 C   0  0  0  0  0
    0.1110    3.8960   -4.2420 C   0  0  0  0  0
   -1.3140    3.8230   -3.6900 C   0  0  0  0  0
   -2.1750    4.9000   -4.3540 C   0  0  0  0  0
   -3.5990    4.8260   -3.8020 C   0  0  0  0  0
   -4.4600    5.9030   -4.4660 C   0  0  0  0  0
   -5.8850    5.8300   -3.9140 C   0  0  0  0  0
   -6.7450    6.9070   -4.5780 C   0  0  0  0  0
   -8.1700    6.8330   -4.0260 C   0  0  0  0  0
   -9.0310    7.9100   -4.6900 C   0  0  0  0  0
  -10.4550    7.8370   -4.1380 C   0  0  0  0  0
  -11.3160    8.9140   -4.8020 C   0  0  0  0  0
  -12.7410    8.8400   -4.2490 C   0  0  0  0  0
    0.7120    5.1620   -3.8640 O   0  0  0  0  0
    1.6970    5.6280   -4.6480 C   0  0  0  0  0
    1.9820    5.0470   -5.6690 O   0  0  0  0  0
    2.4470    6.8750   -4.2560 C   0  0  0  0  0
    3.5080    7.1860   -5.3130 C   0  0  0  0  0
    4.2690    8.4520   -4.9150 C   0  0  0  0  0
    5.3310    8.7620   -5.9730 C   0  0  0  0  0
    6.0920   10.0290   -5.5750 C   0  0  0  0  0
    7.1530   10.3390   -6.6320 C   0  0  0  0  0
    7.9140   11.6060   -6.2340 C   0  0  0  0  0
    8.9760   11.9160   -7.2910 C   0  0  0  0  0
    9.7370   13.1820   -6.8930 C   0  0  0  0  0
   10.7980   13.4930   -7.9500 C   0  0  0  0  0
   11.5590   14.7590   -7.5520 C   0  0  0  0  0
   11.9530   -1.4860    1.7680 H   0  0  0  0  0
   12.1490   -3.2420    1.5470 H   0  0  0  0  0
    7.9050   -3.7880    2.1130 H   0  0  0  0  0
    7.7080   -2.0330    2.3340 H   0  0  0  0  0
    5.6730   -2.1600   -1.4930 H   0  0  0  0  0
    5.7320   -6.0660   -3.3160 H   0  0  0  0  0
    5.9110   -6.7950   -1.7020 H   0  0  0  0  0
    8.1980   -5.9100   -3.5190 H   0  0  0  0  0
    8.3770   -6.6390   -1.9050 H   0  0  0  0  0
    7.2140   -8.6800   -2.6970 H   0  0  0  0  0
    7.0350   -7.9510   -4.3110 H   0  0  0  0  0
    8.5170  -10.5650   -3.6920 H   0  0  0  0  0
    8.3380   -9.8370   -5.3060 H   0  0  0  0  0
    9.8190  -12.4510   -4.6870 H   0  0  0  0  0
    9.6410  -11.7220   -6.3010 H   0  0  0  0  0
   12.5630  -13.9980   -6.6710 H   0  0  0  0  0
   11.1220  -14.3360   -5.6820 H   0  0  0  0  0
   10.9430  -13.6080   -7.2970 H   0  0  0  0  0
   21.7810   -2.9410    7.7220 H   0  0  0  0  0
   22.9620   -1.8160    7.0090 H   0  0  0  0  0
   21.5850   -1.1850    7.9430 H   0  0  0  0  0
   21.2040   -0.9210    5.5070 H   0  0  0  0  0
   21.4000   -2.6770    5.2860 H   0  0  0  0  0
   19.4680   -3.0820    6.7870 H   0  0  0  0  0
   19.2720   -1.3270    7.0080 H   0  0  0  0  0
   18.8910   -1.0630    4.5720 H   0  0  0  0  0
   19.0870   -2.8180    4.3510 H   0  0  0  0  0
   17.1560   -3.2230    5.8520 H   0  0  0  0  0
   16.9590   -1.4680    6.0730 H   0  0  0  0  0
   16.5780   -1.2040    3.6370 H   0  0  0  0  0
   16.7750   -2.9590    3.4160 H   0  0  0  0  0
   14.8430   -3.3640    4.9180 H   0  0  0  0  0
   14.6460   -1.6090    5.1380 H   0  0  0  0  0
   14.2650   -1.3450    2.7030 H   0  0  0  0  0
   14.4620   -3.1000    2.4820 H   0  0  0  0  0
   12.3340   -1.7500    4.2040 H   0  0  0  0  0
   12.5300   -3.5060    3.9830 H   0  0  0  0  0
   10.2180   -3.6470    3.0480 H   0  0  0  0  0
   10.0210   -1.8920    3.2690 H   0  0  0  0  0
    9.8370   -3.3830    0.6120 H   0  0  0  0  0
    9.6400   -1.6280    0.8330 H   0  0  0  0  0
    4.6080   -4.9090   -0.7060 H   0  0  0  0  0
    4.4290   -4.1810   -2.3210 H   0  0  0  0  0
    7.0740   -4.7530   -0.9090 H   0  0  0  0  0
    6.8960   -4.0250   -2.5230 H   0  0  0  0  0
    9.5010   -7.7950   -4.5140 H   0  0  0  0  0
    9.6800   -8.5240   -2.9000 H   0  0  0  0  0
   10.8040   -9.6810   -5.5090 H   0  0  0  0  0
   10.9830  -10.4090   -3.8950 H   0  0  0  0  0
   12.1070  -11.5660   -6.5040 H   0  0  0  0  0
   12.2860  -12.2950   -4.8900 H   0  0  0  0  0
    3.1650   -2.3120   -1.4710 H   0  0  0  0  0
    3.2500   -2.9010    0.2060 H   0  0  0  0  0
    3.8130    1.6250    0.1330 H   0  0  0  0  0
    1.8540    3.1140    0.2770 H   0  0  0  0  0
   -0.4260    2.1750    0.3280 H   0  0  0  0  0
    1.4210   -0.1920    2.3720 H   0  0  0  0  0
    3.0930    2.3640    2.3700 H   0  0  0  0  0
    7.0190    0.1690    4.2480 H   0  0  0  0  0
    4.1930    0.9930    5.3880 H   0  0  0  0  0
    2.4400    0.4680    4.5720 H   0  0  0  0  0
    1.6490    2.0560    4.4230 H   0  0  0  0  0
   -1.9210    0.5010    6.0110 H   0  0  0  0  0
   -1.1000   -1.0360    6.3770 H   0  0  0  0  0
   -2.2540   -0.0780    8.3830 H   0  0  0  0  0
   -1.2810    1.9980    9.3890 H   0  0  0  0  0
    0.9460    1.8720    8.3370 H   0  0  0  0  0
    0.1830    4.0840    9.0570 H   0  0  0  0  0
    2.3250    3.8830    7.7610 H   0  0  0  0  0
    1.4220    4.2600    6.2750 H   0  0  0  0  0
    2.3620    6.2190    7.2660 H   0  0  0  0  0
   -1.0180    4.3010    6.4230 H   0  0  0  0  0
   -3.1620    2.1670    7.9230 H   0  0  0  0  0
   -0.2340   -1.3220    8.6730 H   0  0  0  0  0
    2.2040   -1.7680    7.2930 H   0  0  0  0  0
   -0.9880   -1.4060    0.8340 H   0  0  0  0  0
   -1.3380    0.1220    1.6760 H   0  0  0  0  0
   -2.1580    1.0740   -0.5040 H   0  0  0  0  0
   -3.7510    0.1180    1.1170 H   0  0  0  0  0
   -4.6360    0.9030   -1.0450 H   0  0  0  0  0
   -4.9130   -0.6640   -2.9270 H   0  0  0  0  0
   -2.8180    0.6300   -2.8000 H   0  0  0  0  0
    0.4850   -1.3590   -3.8250 H   0  0  0  0  0
   -0.5890   -1.3180   -6.7370 H   0  0  0  0  0
   -3.3590   -2.7790   -1.6170 H   0  0  0  0  0
   -4.5580   -5.0240   -2.5020 H   0  0  0  0  0
   -5.0110   -4.7470   -0.8030 H   0  0  0  0  0
   -6.9860   -4.8590   -3.1260 H   0  0  0  0  0
   -5.8570   -7.0500   -2.6450 H   0  0  0  0  0
   -6.4060   -6.9240   -0.9560 H   0  0  0  0  0
   -8.7610   -6.8400   -1.7290 H   0  0  0  0  0
   -8.2120   -6.9670   -3.4170 H   0  0  0  0  0
   -7.1690   -9.1600   -2.9140 H   0  0  0  0  0
   -7.7180   -9.0330   -1.2250 H   0  0  0  0  0
  -10.0730   -8.9500   -1.9970 H   0  0  0  0  0
   -9.5240   -9.0760   -3.6860 H   0  0  0  0  0
   -8.4810  -11.2690   -3.1820 H   0  0  0  0  0
   -9.0300  -11.1420   -1.4940 H   0  0  0  0  0
  -11.3850  -11.0590   -2.2660 H   0  0  0  0  0
  -10.8360  -11.1850   -3.9540 H   0  0  0  0  0
   -9.7930  -13.3780   -3.4510 H   0  0  0  0  0
  -10.3430  -13.2510   -1.7620 H   0  0  0  0  0
  -12.6970  -13.1680   -2.5350 H   0  0  0  0  0
  -12.1480  -13.2940   -4.2230 H   0  0  0  0  0
  -11.1060  -15.4870   -3.7190 H   0  0  0  0  0
  -11.6550  -15.3600   -2.0310 H   0  0  0  0  0
  -14.0100  -15.2770   -2.8030 H   0  0  0  0  0
  -13.4600  -15.4030   -4.4920 H   0  0  0  0  0
  -12.4180  -17.5960   -3.9880 H   0  0  0  0  0
  -12.9670  -17.4690   -2.3000 H   0  0  0  0  0
  -14.1580  -17.6150   -3.6140 H   0  0  0  0  0
   -7.3920   -4.8000   -0.2520 H   0  0  0  0  0
   -8.6090   -0.5220   -0.0350 H   0  0  0  0  0
   -7.8600   -1.0570    1.4880 H   0  0  0  0  0
   -8.6860    1.8160    0.8810 H   0  0  0  0  0
  -10.6180    0.2210    1.0720 H   0  0  0  0  0
  -10.0180   -0.2590    2.6780 H   0  0  0  0  0
  -10.2150    2.0880    3.4540 H   0  0  0  0  0
  -10.8150    2.5680    1.8490 H   0  0  0  0  0
  -12.7430    1.0300    2.1090 H   0  0  0  0  0
  -12.1420    0.5490    3.7140 H   0  0  0  0  0
  -12.3400    2.8960    4.4900 H   0  0  0  0  0
  -12.9400    3.3760    2.8850 H   0  0  0  0  0
  -14.8670    1.8380    3.1450 H   0  0  0  0  0
  -14.2670    1.3580    4.7510 H   0  0  0  0  0
  -14.4640    3.7050    5.5270 H   0  0  0  0  0
  -15.0650    4.1850    3.9210 H   0  0  0  0  0
  -16.9920    2.6470    4.1820 H   0  0  0  0  0
  -16.3920    2.1670    5.7870 H   0  0  0  0  0
  -16.5890    4.5130    6.5630 H   0  0  0  0  0
  -17.1890    4.9940    4.9580 H   0  0  0  0  0
  -19.1170    3.4550    5.2180 H   0  0  0  0  0
  -18.5170    2.9750    6.8230 H   0  0  0  0  0
  -18.7140    5.3220    7.5990 H   0  0  0  0  0
  -19.3140    5.8020    5.9940 H   0  0  0  0  0
  -21.2420    4.2640    6.2540 H   0  0  0  0  0
  -20.6410    3.7840    7.8600 H   0  0  0  0  0
  -21.1900    5.4530    7.5780 H   0  0  0  0  0
   -7.8040    0.5420    3.3360 H   0  0  0  0  0
   -2.8250   -2.0850    1.1760 H   0  0  0  0  0
    1.9750    1.1350   -1.8690 H   0  0  0  0  0
    1.9410    2.7700   -4.0980 H   0  0  0  0  0
    0.4630    1.7970   -3.9130 H   0  0  0  0  0
    0.0840    3.8180   -5.3290 H   0  0  0  0  0
   -1.7350    2.8400   -3.9010 H   0  0  0  0  0
   -1.2950    3.9870   -2.6130 H   0  0  0  0  0
   -1.7530    5.8830   -4.1440 H   0  0  0  0  0
   -2.1940    4.7360   -5.4320 H   0  0  0  0  0
   -4.0210    3.8430   -4.0130 H   0  0  0  0  0
   -3.5800    4.9900   -2.7240 H   0  0  0  0  0
   -4.0390    6.8860   -4.2560 H   0  0  0  0  0
   -4.4790    5.7390   -5.5440 H   0  0  0  0  0
   -6.3060    4.8470   -4.1240 H   0  0  0  0  0
   -5.8660    5.9940   -2.8360 H   0  0  0  0  0
   -6.3240    7.8900   -4.3670 H   0  0  0  0  0
   -6.7640    6.7430   -5.6560 H   0  0  0  0  0
   -8.5920    5.8510   -4.2360 H   0  0  0  0  0
   -8.1510    6.9970   -2.9480 H   0  0  0  0  0
   -8.6090    8.8930   -4.4790 H   0  0  0  0  0
   -9.0500    7.7460   -5.7670 H   0  0  0  0  0
  -10.8770    6.8540   -4.3480 H   0  0  0  0  0
  -10.4360    8.0010   -3.0600 H   0  0  0  0  0
  -10.8950    9.8970   -4.5910 H   0  0  0  0  0
  -11.3350    8.7500   -5.8790 H   0  0  0  0  0
  -12.7220    9.0040   -3.1720 H   0  0  0  0  0
  -13.3540    9.6080   -4.7230 H   0  0  0  0  0
  -13.1620    7.8580   -4.4600 H   0  0  0  0  0
    1.7500    7.7100   -4.1840 H   0  0  0  0  0
    2.9300    6.7200   -3.2910 H   0  0  0  0  0
    4.2050    6.3510   -5.3850 H   0  0  0  0  0
    3.0250    7.3400   -6.2780 H   0  0  0  0  0
    3.5730    9.2870   -4.8430 H   0  0  0  0  0
    4.7520    8.2970   -3.9500 H   0  0  0  0  0
    6.0270    7.9270   -6.0450 H   0  0  0  0  0
    4.8480    8.9170   -6.9380 H   0  0  0  0  0
    5.3950   10.8640   -5.5030 H   0  0  0  0  0
    6.5750    9.8740   -4.6100 H   0  0  0  0  0
    7.8500    9.5040   -6.7040 H   0  0  0  0  0
    6.6700   10.4940   -7.5970 H   0  0  0  0  0
    7.2180   12.4410   -6.1620 H   0  0  0  0  0
    8.3970   11.4510   -5.2690 H   0  0  0  0  0
    9.6720   11.0810   -7.3630 H   0  0  0  0  0
    8.4930   12.0710   -8.2560 H   0  0  0  0  0
    9.0400   14.0170   -6.8210 H   0  0  0  0  0
   10.2190   13.0280   -5.9280 H   0  0  0  0  0
   11.4950   12.6580   -8.0220 H   0  0  0  0  0
   10.3150   13.6480   -8.9150 H   0  0  0  0  0
   12.3150   14.9800   -8.3060 H   0  0  0  0  0
   10.8630   15.5940   -7.4800 H   0  0  0  0  0
   12.0420   14.6040   -6.5870 H   0  0  0  0  0
  1 19  1  0  0  0
  1139  1  0  0  0
  1140  1  0  0  0
  2 21  1  0  0  0
  2141  1  0  0  0
  2142  1  0  0  0
  3 23  1  0  0  0
  3 29  1  0  0  0
  3143  1  0  0  0
  4 25  1  0  0  0
  4144  1  0  0  0
  4145  1  0  0  0
  5  4  1  0  0  0
  5146  1  0  0  0
  5147  1  0  0  0
  6  5  1  0  0  0
  6148  1  0  0  0
  6149  1  0  0  0
  7 26  1  0  0  0
  7150  1  0  0  0
  7151  1  0  0  0
  8 27  1  0  0  0
  8152  1  0  0  0
  8153  1  0  0  0
  9 28  1  0  0  0
  9154  1  0  0  0
  9155  1  0  0  0
  9156  1  0  0  0
 10 11  1  0  0  0
 10157  1  0  0  0
 10158  1  0  0  0
 10159  1  0  0  0
 11 12  1  0  0  0
 11160  1  0  0  0
 11161  1  0  0  0
 12 13  1  0  0  0
 12162  1  0  0  0
 12163  1  0  0  0
 13 14  1  0  0  0
 13164  1  0  0  0
 13165  1  0  0  0
 14 15  1  0  0  0
 14166  1  0  0  0
 14167  1  0  0  0
 15 16  1  0  0  0
 15168  1  0  0  0
 15169  1  0  0  0
 16 17  1  0  0  0
 16170  1  0  0  0
 16171  1  0  0  0
 17 18  1  0  0  0
 17172  1  0  0  0
 17173  1  0  0  0
 18  1  1  0  0  0
 18174  1  0  0  0
 18175  1  0  0  0
 19 20  1  0  0  0
 19176  1  0  0  0
 19177  1  0  0  0
 20  2  1  0  0  0
 20178  1  0  0  0
 20179  1  0  0  0
 21 23  1  0  0  0
 21 22  2  0  0  0
 24  3  1  0  0  0
 24180  1  0  0  0
 24181  1  0  0  0
 25 24  1  0  0  0
 25182  1  0  0  0
 25183  1  0  0  0
 26  6  1  0  0  0
 26184  1  0  0  0
 26185  1  0  0  0
 27  7  1  0  0  0
 27186  1  0  0  0
 27187  1  0  0  0
 28  8  1  0  0  0
 28188  1  0  0  0
 28189  1  0  0  0
 29 30  1  0  0  0
 29190  1  0  0  0
 29191  1  0  0  0
 30 31  2  0  0  0
 30 32  1  0  0  0
 32 33  1  0  0  0
 33 38  1  0  0  0
 33192  1  0  0  0
 34 33  1  0  0  0
 34 35  1  0  0  0
 34193  1  0  0  0
 35 36  1  0  0  0
 35194  1  0  0  0
 36 37  1  0  0  0
 37 44  1  0  0  0
 37195  1  0  0  0
 38 39  1  0  0  0
 38 37  1  0  0  0
 38196  1  0  0  0
 39 40  1  0  0  0
 40 43  1  0  0  0
 40 41  1  0  0  0
 41197  1  0  0  0
 42 40  2  0  0  0
 43198  1  0  0  0
 44 45  1  0  0  0
 44199  1  0  0  0
 44200  1  0  0  0
 45 46  1  0  0  0
 46 47  1  0  0  0
 46 58  1  0  0  0
 47201  1  0  0  0
 47202  1  0  0  0
 48 49  1  0  0  0
 48 47  1  0  0  0
 48203  1  0  0  0
 49 50  1  0  0  0
 49204  1  0  0  0
 50205  1  0  0  0
 51 46  1  0  0  0
 51 50  1  0  0  0
 52 53  1  0  0  0
 52 50  1  0  0  0
 52206  1  0  0  0
 53207  1  0  0  0
 53208  1  0  0  0
 54 53  1  0  0  0
 54209  1  0  0  0
 55 52  1  0  0  0
 55210  1  0  0  0
 56 49  1  0  0  0
 56211  1  0  0  0
 57 48  1  0  0  0
 57212  1  0  0  0
 58 59  1  0  0  0
 59213  1  0  0  0
 60 58  2  0  0  0
 61 35  1  0  0  0
 62 61  1  0  0  0
 62214  1  0  0  0
 62215  1  0  0  0
 63 68  1  0  0  0
 63 62  1  0  0  0
 63216  1  0  0  0
 64 63  1  0  0  0
 64217  1  0  0  0
 65 66  1  0  0  0
 65 64  1  0  0  0
 65218  1  0  0  0
 66 67  1  0  0  0
 66219  1  0  0  0
 67 69  1  0  0  0
 67 68  1  0  0  0
 67220  1  0  0  0
 69 70  1  0  0  0
 70 71  1  0  0  0
 70 72  1  0  0  0
 71221  1  0  0  0
 72222  1  0  0  0
 73 70  2  0  0  0
 74 66  1  0  0  0
 74223  1  0  0  0
 75 74  1  0  0  0
 76 75  2  0  0  0
 77 75  1  0  0  0
 77224  1  0  0  0
 77225  1  0  0  0
 78 90  1  0  0  0
 78 77  1  0  0  0
 78226  1  0  0  0
 79 78  1  0  0  0
 79227  1  0  0  0
 79228  1  0  0  0
 80 79  1  0  0  0
 80229  1  0  0  0
 80230  1  0  0  0
 81 80  1  0  0  0
 81231  1  0  0  0
 81232  1  0  0  0
 82 81  1  0  0  0
 82233  1  0  0  0
 82234  1  0  0  0
 83 82  1  0  0  0
 83235  1  0  0  0
 83236  1  0  0  0
 84 83  1  0  0  0
 84237  1  0  0  0
 84238  1  0  0  0
 85 84  1  0  0  0
 85239  1  0  0  0
 85240  1  0  0  0
 86 85  1  0  0  0
 86241  1  0  0  0
 86242  1  0  0  0
 87 86  1  0  0  0
 87243  1  0  0  0
 87244  1  0  0  0
 88 87  1  0  0  0
 88245  1  0  0  0
 88246  1  0  0  0
 89 88  1  0  0  0
 89247  1  0  0  0
 89248  1  0  0  0
 89249  1  0  0  0
 90250  1  0  0  0
 91 65  1  0  0  0
 92 91  1  0  0  0
 93 92  2  0  0  0
 94 92  1  0  0  0
 94251  1  0  0  0
 94252  1  0  0  0
 95107  1  0  0  0
 95 94  1  0  0  0
 95253  1  0  0  0
 96 97  1  0  0  0
 96 95  1  0  0  0
 96254  1  0  0  0
 96255  1  0  0  0
 97256  1  0  0  0
 97257  1  0  0  0
 98 97  1  0  0  0
 98258  1  0  0  0
 98259  1  0  0  0
 99 98  1  0  0  0
 99260  1  0  0  0
 99261  1  0  0  0
100 99  1  0  0  0
100262  1  0  0  0
100263  1  0  0  0
101100  1  0  0  0
101264  1  0  0  0
101265  1  0  0  0
102101  1  0  0  0
102266  1  0  0  0
102267  1  0  0  0
103102  1  0  0  0
103268  1  0  0  0
103269  1  0  0  0
104103  1  0  0  0
104105  1  0  0  0
104270  1  0  0  0
104271  1  0  0  0
105272  1  0  0  0
105273  1  0  0  0
106105  1  0  0  0
106274  1  0  0  0
106275  1  0  0  0
106276  1  0  0  0
107277  1  0  0  0
108 64  1  0  0  0
108278  1  0  0  0
109 34  1  0  0  0
109279  1  0  0  0
110111  2  0  0  0
110109  1  0  0  0
112110  1  0  0  0
112280  1  0  0  0
112281  1  0  0  0
113125  1  0  0  0
113112  1  0  0  0
113282  1  0  0  0
114113  1  0  0  0
114283  1  0  0  0
114284  1  0  0  0
115114  1  0  0  0
115285  1  0  0  0
115286  1  0  0  0
116115  1  0  0  0
116287  1  0  0  0
116288  1  0  0  0
117116  1  0  0  0
117289  1  0  0  0
117290  1  0  0  0
118117  1  0  0  0
118291  1  0  0  0
118292  1  0  0  0
119118  1  0  0  0
119293  1  0  0  0
119294  1  0  0  0
120119  1  0  0  0
120295  1  0  0  0
120296  1  0  0  0
121120  1  0  0  0
121297  1  0  0  0
121298  1  0  0  0
122121  1  0  0  0
122299  1  0  0  0
122300  1  0  0  0
123122  1  0  0  0
123301  1  0  0  0
123302  1  0  0  0
124123  1  0  0  0
124303  1  0  0  0
124304  1  0  0  0
124305  1  0  0  0
126127  2  0  0  0
126125  1  0  0  0
128126  1  0  0  0
128306  1  0  0  0
128307  1  0  0  0
129128  1  0  0  0
129308  1  0  0  0
129309  1  0  0  0
130129  1  0  0  0
130310  1  0  0  0
130311  1  0  0  0
131130  1  0  0  0
131312  1  0  0  0
131313  1  0  0  0
132131  1  0  0  0
132314  1  0  0  0
132315  1  0  0  0
133132  1  0  0  0
133316  1  0  0  0
133317  1  0  0  0
134133  1  0  0  0
134318  1  0  0  0
134319  1  0  0  0
135134  1  0  0  0
135320  1  0  0  0
135321  1  0  0  0
136135  1  0  0  0
136322  1  0  0  0
136323  1  0  0  0
137136  1  0  0  0
137324  1  0  0  0
137325  1  0  0  0
138137  1  0  0  0
138326  1  0  0  0
138327  1  0  0  0
138328  1  0  0  0
M  END
$$$$
