CXN
  CCTOOLS-0919241040

 47 50  0  0  1  0  0  0  0  0999 V2000
   -0.2600    1.7630   -2.0340 C   0  0  0  0  0
   -1.2640    2.3220   -1.6470 O   0  0  0  0  0
    1.1460    1.6240   -1.4890 C   0  0  0  0  0
    1.4840    0.9260   -2.8070 C   0  0  0  0  0
    0.0350    0.9730   -3.1160 N   0  0  0  0  0
   -0.6280   -0.3600   -3.1440 C   0  0  0  0  0
   -1.7380   -0.3160   -4.1620 C   0  0  0  0  0
   -2.8480   -1.0480   -3.9770 O   0  0  0  0  0
   -1.6290    0.3770   -5.1450 O   0  0  0  0  0
    0.3620   -1.4950   -3.5240 C   0  0  0  0  0
    0.5920   -1.5590   -5.0350 C   0  0  0  0  0
   -0.0910   -2.8480   -2.9720 C   0  0  0  0  0
    1.8560   -0.8640   -2.6350 S   0  0  0  0  0
    1.2400    0.7500   -0.3170 N   0  0  0  0  0
    1.5330    1.2710    0.8900 C   0  0  0  0  0
    1.7190    2.4670    1.0080 O   0  0  0  0  0
    1.6280    0.3910    2.0680 C   0  0  0  0  0
    1.1380   -0.8330    3.8470 N   0  0  0  0  0
    2.3290   -0.8970    3.6660 O   0  0  0  0  0
    2.7440   -0.1940    2.6100 C   0  0  0  0  0
    0.5440   -0.0820    2.9540 C   0  0  0  0  0
    4.1610   -0.0650    2.1130 C   0  0  0  0  0
   -0.9010    0.2290    2.8560 C   0  0  0  0  0
   -1.8120   -0.3960    3.7070 C   0  0  0  0  0
   -1.2540   -1.5370    4.8900 CL  0  0  0  0  0
   -3.1570   -0.0960    3.6150 C   0  0  0  0  0
   -3.6020    0.8110    2.6720 C   0  0  0  0  0
   -2.7040    1.4300    1.8210 C   0  0  0  0  0
   -1.3570    1.1440    1.9080 C   0  0  0  0  0
    1.6590    2.5760   -1.3510 H   0  0  0  0  0
    2.1460    1.4720   -3.4800 H   0  0  0  0  0
   -1.0540   -0.5740   -2.1640 H   0  0  0  0  0
   -3.5600   -1.0190   -4.6300 H   0  0  0  0  0
    1.4090   -2.2470   -5.2500 H   0  0  0  0  0
   -0.3150   -1.9090   -5.5260 H   0  0  0  0  0
    0.8450   -0.5660   -5.4060 H   0  0  0  0  0
    0.7020   -3.5820   -3.1120 H   0  0  0  0  0
   -0.3120   -2.7510   -1.9090 H   0  0  0  0  0
   -0.9860   -3.1740   -3.5010 H   0  0  0  0  0
    1.0920   -0.2040   -0.4110 H   0  0  0  0  0
    4.8250   -0.6440    2.7550 H   0  0  0  0  0
    4.2240   -0.4410    1.0920 H   0  0  0  0  0
    4.4590    0.9820    2.1330 H   0  0  0  0  0
   -3.8630   -0.5760    4.2760 H   0  0  0  0  0
   -4.6560    1.0390    2.6000 H   0  0  0  0  0
   -3.0580    2.1390    1.0870 H   0  0  0  0  0
   -0.6570    1.6280    1.2430 H   0  0  0  0  0
  1  2  2  0  0  0
  1  3  1  0  0  0
  1  5  1  0  0  0
  3  4  1  0  0  0
  3 14  1  0  0  0
  3 30  1  0  0  0
  4  5  1  0  0  0
  4 13  1  0  0  0
  4 31  1  0  0  0
  5  6  1  0  0  0
  6  7  1  0  0  0
  6 10  1  0  0  0
  6 32  1  0  0  0
  7  8  1  0  0  0
  7  9  2  0  0  0
  8 33  1  0  0  0
 10 11  1  0  0  0
 10 12  1  0  0  0
 10 13  1  0  0  0
 11 34  1  0  0  0
 11 35  1  0  0  0
 11 36  1  0  0  0
 12 37  1  0  0  0
 12 38  1  0  0  0
 12 39  1  0  0  0
 14 15  1  0  0  0
 14 40  1  0  0  0
 15 16  2  0  0  0
 15 17  1  0  0  0
 17 20  2  0  0  0
 17 21  1  0  0  0
 18 19  1  0  0  0
 18 21  2  0  0  0
 19 20  1  0  0  0
 20 22  1  0  0  0
 21 23  1  0  0  0
 22 41  1  0  0  0
 22 42  1  0  0  0
 22 43  1  0  0  0
 23 24  2  0  0  0
 23 29  1  0  0  0
 24 25  1  0  0  0
 24 26  1  0  0  0
 26 27  2  0  0  0
 26 44  1  0  0  0
 27 28  1  0  0  0
 27 45  1  0  0  0
 28 29  2  0  0  0
 28 46  1  0  0  0
 29 47  1  0  0  0
M  END
$$$$
