D10
  CCTOOLS-0919241041

 32 31  0  0  0  0  0  0  0  0999 V2000
   -0.3070    0.0000    5.6300 C   0  0  0  0  0
    0.5460    0.0000    4.3600 C   0  0  0  0  0
   -0.3660    0.0000    3.1320 C   0  0  0  0  0
    0.4860    0.0000    1.8620 C   0  0  0  0  0
   -0.4260    0.0000    0.6350 C   0  0  0  0  0
    0.4260    0.0000   -0.6350 C   0  0  0  0  0
   -0.4860    0.0000   -1.8620 C   0  0  0  0  0
    0.3660    0.0000   -3.1320 C   0  0  0  0  0
   -0.5460    0.0000   -4.3600 C   0  0  0  0  0
    0.3070    0.0000   -5.6300 C   0  0  0  0  0
    0.3430    0.0000    6.5050 H   0  0  0  0  0
   -0.9360    0.8900    5.6450 H   0  0  0  0  0
   -0.9360   -0.8900    5.6450 H   0  0  0  0  0
    1.1750    0.8900    4.3450 H   0  0  0  0  0
    1.1750   -0.8900    4.3450 H   0  0  0  0  0
   -0.9960   -0.8900    3.1470 H   0  0  0  0  0
   -0.9960    0.8900    3.1470 H   0  0  0  0  0
    1.1150    0.8900    1.8470 H   0  0  0  0  0
    1.1150   -0.8900    1.8470 H   0  0  0  0  0
   -1.0550   -0.8900    0.6500 H   0  0  0  0  0
   -1.0550    0.8900    0.6500 H   0  0  0  0  0
    1.0550    0.8900   -0.6500 H   0  0  0  0  0
    1.0550   -0.8900   -0.6500 H   0  0  0  0  0
   -1.1150   -0.8900   -1.8470 H   0  0  0  0  0
   -1.1150    0.8900   -1.8470 H   0  0  0  0  0
    0.9960    0.8900   -3.1470 H   0  0  0  0  0
    0.9960   -0.8900   -3.1470 H   0  0  0  0  0
   -1.1750   -0.8900   -4.3450 H   0  0  0  0  0
   -1.1750    0.8900   -4.3450 H   0  0  0  0  0
   -0.3430    0.0000   -6.5050 H   0  0  0  0  0
    0.9360    0.8900   -5.6450 H   0  0  0  0  0
    0.9360   -0.8900   -5.6450 H   0  0  0  0  0
  1  2  1  0  0  0
  1 11  1  0  0  0
  1 12  1  0  0  0
  1 13  1  0  0  0
  2  3  1  0  0  0
  2 14  1  0  0  0
  2 15  1  0  0  0
  3  4  1  0  0  0
  3 16  1  0  0  0
  3 17  1  0  0  0
  4  5  1  0  0  0
  4 18  1  0  0  0
  4 19  1  0  0  0
  5  6  1  0  0  0
  5 20  1  0  0  0
  5 21  1  0  0  0
  6  7  1  0  0  0
  6 22  1  0  0  0
  6 23  1  0  0  0
  7  8  1  0  0  0
  7 24  1  0  0  0
  7 25  1  0  0  0
  8  9  1  0  0  0
  8 26  1  0  0  0
  8 27  1  0  0  0
  9 10  1  0  0  0
  9 28  1  0  0  0
  9 29  1  0  0  0
 10 30  1  0  0  0
 10 31  1  0  0  0
 10 32  1  0  0  0
M  END
$$$$
