D21
  CCTOOLS-0919241041

117116  0  0  1  0  0  0  0  0999 V2000
   18.8930    6.7770   -1.1540 C   0  0  0  0  0
   17.9730    6.0580   -0.1650 C   0  0  0  0  0
   16.7350    5.5430   -0.9020 C   0  0  0  0  0
   15.8150    4.8250    0.0870 C   0  0  0  0  0
   14.5770    4.3100   -0.6500 C   0  0  0  0  0
   13.6560    3.5920    0.3390 C   0  0  0  0  0
   12.4180    3.0760   -0.3980 C   0  0  0  0  0
   11.4980    2.3580    0.5910 C   0  0  0  0  0
   10.2600    1.8430   -0.1460 C   0  0  0  0  0
    9.3400    1.1250    0.8430 C   0  0  0  0  0
    8.1020    0.6100    0.1060 C   0  0  0  0  0
    7.1820   -0.1090    1.0950 C   0  0  0  0  0
    5.9440   -0.6240    0.3570 C   0  0  0  0  0
    5.0240   -1.3420    1.3470 C   0  0  0  0  0
    3.7860   -1.8570    0.6090 C   0  0  0  0  0
    2.8790   -2.5650    1.5840 C   0  0  0  0  0
    3.1910   -2.6480    2.7480 O   0  0  0  0  0
    1.7250   -3.1020    1.1580 O   0  0  0  0  0
    0.9020   -3.7680    2.1510 C   0  0  0  0  0
   -0.3620   -4.3130    1.4840 C   0  0  0  0  0
    0.0280   -5.2140    0.3110 C   0  0  0  0  0
    0.8780   -4.4930   -0.5820 O   0  0  0  0  0
    1.4820   -5.1350   -1.9300 P   0  0  0  0  0
    2.2820   -4.0050   -2.7520 O   0  0  0  0  0
    2.4870   -6.3340   -1.5500 O   0  0  0  0  0
    0.3770   -5.6620   -2.7630 O   0  0  0  0  0
   -1.1670   -3.2070    0.9970 O   0  0  0  0  0
   -2.4960   -3.3910    0.9600 C   0  0  0  0  0
   -2.9710   -4.4400    1.3230 O   0  0  0  0  0
   -3.3960   -2.2870    0.4670 C   0  0  0  0  0
   -4.8530   -2.7510    0.5270 C   0  0  0  0  0
   -5.7660   -1.6310    0.0260 C   0  0  0  0  0
   -7.2230   -2.0950    0.0860 C   0  0  0  0  0
   -8.1370   -0.9750   -0.4150 C   0  0  0  0  0
   -9.5930   -1.4390   -0.3540 C   0  0  0  0  0
  -10.5070   -0.3190   -0.8550 C   0  0  0  0  0
  -11.9410   -0.7760   -0.7960 C   0  0  0  0  0
  -12.8380   -0.0430   -0.1830 C   0  0  0  0  0
  -12.4740    1.3330    0.3130 C   0  0  0  0  0
  -13.4710    2.3540   -0.2390 C   0  0  0  0  0
  -13.1020    3.7510    0.2650 C   0  0  0  0  0
  -14.0990    4.7720   -0.2870 C   0  0  0  0  0
  -13.7300    6.1690    0.2170 C   0  0  0  0  0
  -14.7270    7.1900   -0.3350 C   0  0  0  0  0
  -14.3580    8.5860    0.1690 C   0  0  0  0  0
  -15.3550    9.6080   -0.3830 C   0  0  0  0  0
   19.1990    6.0820   -1.9360 H   0  0  0  0  0
   18.3610    7.6160   -1.6010 H   0  0  0  0  0
   19.7750    7.1440   -0.6290 H   0  0  0  0  0
   18.5050    5.2190    0.2820 H   0  0  0  0  0
   17.6670    6.7530    0.6170 H   0  0  0  0  0
   16.2030    6.3830   -1.3490 H   0  0  0  0  0
   17.0410    4.8480   -1.6840 H   0  0  0  0  0
   16.3470    3.9860    0.5340 H   0  0  0  0  0
   14.0450    5.1490   -1.0980 H   0  0  0  0  0
   14.1880    2.7520    0.7860 H   0  0  0  0  0
   13.3510    4.2860    1.1210 H   0  0  0  0  0
   11.8870    3.9160   -0.8460 H   0  0  0  0  0
   12.7240    2.3820   -1.1800 H   0  0  0  0  0
   12.0300    1.5190    1.0380 H   0  0  0  0  0
   11.1920    3.0530    1.3730 H   0  0  0  0  0
    9.7280    2.6830   -0.5940 H   0  0  0  0  0
   10.5660    1.1480   -0.9280 H   0  0  0  0  0
    9.8720    0.2850    1.2900 H   0  0  0  0  0
    9.0340    1.8200    1.6250 H   0  0  0  0  0
    7.5700    1.4490   -0.3420 H   0  0  0  0  0
    8.4080   -0.0850   -0.6770 H   0  0  0  0  0
    7.7140   -0.9480    1.5420 H   0  0  0  0  0
    5.4120    0.2160   -0.0900 H   0  0  0  0  0
    5.5560   -2.1810    1.7940 H   0  0  0  0  0
    4.7180   -0.6470    2.1290 H   0  0  0  0  0
    3.2540   -1.0180    0.1620 H   0  0  0  0  0
    4.0920   -2.5520   -0.1730 H   0  0  0  0  0
    1.4620   -4.5910    2.5950 H   0  0  0  0  0
    0.6250   -3.0570    2.9290 H   0  0  0  0  0
   -0.9370   -4.8890    2.2090 H   0  0  0  0  0
    0.5570   -6.0910    0.6870 H   0  0  0  0  0
   -0.8700   -5.5310   -0.2190 H   0  0  0  0  0
    2.6730   -4.3220   -3.5770 H   0  0  0  0  0
    3.2360   -6.0610   -1.0030 H   0  0  0  0  0
   -3.2690   -1.4060    1.0960 H   0  0  0  0  0
   -3.1360   -2.0390   -0.5630 H   0  0  0  0  0
   -4.9800   -3.6320   -0.1020 H   0  0  0  0  0
   -5.1130   -2.9990    1.5560 H   0  0  0  0  0
   -5.6400   -0.7500    0.6550 H   0  0  0  0  0
   -5.5060   -1.3830   -1.0030 H   0  0  0  0  0
   -7.3500   -2.9760   -0.5430 H   0  0  0  0  0
   -7.4830   -2.3430    1.1160 H   0  0  0  0  0
   -8.0100   -0.0940    0.2140 H   0  0  0  0  0
   -7.8770   -0.7270   -1.4440 H   0  0  0  0  0
   -9.7200   -2.3200   -0.9830 H   0  0  0  0  0
   -9.8530   -1.6870    0.6750 H   0  0  0  0  0
  -10.3800    0.5620   -0.2260 H   0  0  0  0  0
  -10.2470   -0.0710   -1.8850 H   0  0  0  0  0
  -12.2310   -1.7080   -1.2580 H   0  0  0  0  0
  -13.8370   -0.4240   -0.0340 H   0  0  0  0  0
  -12.5060    1.3460    1.4030 H   0  0  0  0  0
  -13.4390    2.3410   -1.3280 H   0  0  0  0  0
  -14.4760    2.1000    0.0990 H   0  0  0  0  0
  -13.1340    3.7640    1.3550 H   0  0  0  0  0
  -12.0970    4.0050   -0.0720 H   0  0  0  0  0
  -14.0670    4.7590   -1.3760 H   0  0  0  0  0
  -15.1040    4.5180    0.0510 H   0  0  0  0  0
  -13.7620    6.1820    1.3070 H   0  0  0  0  0
  -12.7250    6.4230   -0.1200 H   0  0  0  0  0
  -14.6950    7.1760   -1.4240 H   0  0  0  0  0
  -15.7320    6.9360    0.0020 H   0  0  0  0  0
  -14.3900    8.6000    1.2580 H   0  0  0  0  0
  -13.3530    8.8410   -0.1680 H   0  0  0  0  0
  -15.3230    9.5940   -1.4720 H   0  0  0  0  0
  -16.3600    9.3530   -0.0460 H   0  0  0  0  0
  -15.0920   10.6030   -0.0240 H   0  0  0  0  0
   15.5090    5.5200    0.8690 H   0  0  0  0  0
   14.8820    3.6150   -1.4320 H   0  0  0  0  0
    6.8760    0.5860    1.8770 H   0  0  0  0  0
    6.2500   -1.3190   -0.4250 H   0  0  0  0  0
  -11.4690    1.5870   -0.0240 H   0  0  0  0  0
  1 47  1  0  0  0
  1 48  1  0  0  0
  1 49  1  0  0  0
  2  1  1  0  0  0
  2 50  1  0  0  0
  2 51  1  0  0  0
  3  2  1  0  0  0
  3 52  1  0  0  0
  3 53  1  0  0  0
  4  3  1  0  0  0
  4  5  1  0  0  0
  4 54  1  0  0  0
  4113  1  0  0  0
  5 55  1  0  0  0
  5114  1  0  0  0
  6  5  1  0  0  0
  6  7  1  0  0  0
  6 56  1  0  0  0
  6 57  1  0  0  0
  7 58  1  0  0  0
  7 59  1  0  0  0
  8  7  1  0  0  0
  8 60  1  0  0  0
  8 61  1  0  0  0
  9 10  1  0  0  0
  9  8  1  0  0  0
  9 62  1  0  0  0
  9 63  1  0  0  0
 10 64  1  0  0  0
 10 65  1  0  0  0
 11 12  1  0  0  0
 11 10  1  0  0  0
 11 66  1  0  0  0
 11 67  1  0  0  0
 12 13  1  0  0  0
 12 68  1  0  0  0
 12115  1  0  0  0
 13 14  1  0  0  0
 13 69  1  0  0  0
 13116  1  0  0  0
 14 15  1  0  0  0
 14 70  1  0  0  0
 14 71  1  0  0  0
 15 16  1  0  0  0
 15 72  1  0  0  0
 15 73  1  0  0  0
 16 17  2  0  0  0
 16 18  1  0  0  0
 18 19  1  0  0  0
 19 20  1  0  0  0
 19 74  1  0  0  0
 19 75  1  0  0  0
 20 21  1  0  0  0
 20 76  1  0  0  0
 21 22  1  0  0  0
 21 77  1  0  0  0
 21 78  1  0  0  0
 22 23  1  0  0  0
 23 24  1  0  0  0
 23 25  1  0  0  0
 24 79  1  0  0  0
 25 80  1  0  0  0
 26 23  2  0  0  0
 27 28  1  0  0  0
 27 20  1  0  0  0
 28 29  2  0  0  0
 30 28  1  0  0  0
 30 31  1  0  0  0
 30 81  1  0  0  0
 30 82  1  0  0  0
 31 83  1  0  0  0
 31 84  1  0  0  0
 32 31  1  0  0  0
 32 33  1  0  0  0
 32 85  1  0  0  0
 32 86  1  0  0  0
 33 87  1  0  0  0
 33 88  1  0  0  0
 34 33  1  0  0  0
 34 35  1  0  0  0
 34 89  1  0  0  0
 34 90  1  0  0  0
 35 36  1  0  0  0
 35 91  1  0  0  0
 35 92  1  0  0  0
 36 37  1  0  0  0
 36 93  1  0  0  0
 36 94  1  0  0  0
 37 38  2  0  0  0
 37 95  1  0  0  0
 38 39  1  0  0  0
 38 96  1  0  0  0
 39 40  1  0  0  0
 39 97  1  0  0  0
 39117  1  0  0  0
 40 41  1  0  0  0
 40 98  1  0  0  0
 40 99  1  0  0  0
 41 42  1  0  0  0
 41100  1  0  0  0
 41101  1  0  0  0
 42102  1  0  0  0
 42103  1  0  0  0
 43 42  1  0  0  0
 43 44  1  0  0  0
 43104  1  0  0  0
 43105  1  0  0  0
 44106  1  0  0  0
 44107  1  0  0  0
 45 44  1  0  0  0
 45 46  1  0  0  0
 45108  1  0  0  0
 45109  1  0  0  0
 46110  1  0  0  0
 46111  1  0  0  0
 46112  1  0  0  0
M  END
$$$$
