D6M
  CCTOOLS-1004241125

 66 65  0  0  1  0  0  0  0  0999 V2000
    4.0980    1.1480    1.1510 O   0  0  0  0  0
    4.2070    0.5350    0.1100 C   0  0  0  0  0
    5.4290    0.2850   -0.4000 N   0  0  0  0  0
    6.6260    0.7520    0.3040 C   0  0  0  0  0
    7.8170   -0.1310   -0.0730 C   0  0  0  0  0
    7.5790   -1.5540    0.4350 C   0  0  0  0  0
    8.7520   -2.4240    0.0630 C   0  0  0  0  0
    9.6840   -1.9530   -0.5460 O   0  0  0  0  0
    6.9140    2.1790   -0.0870 C   0  0  0  0  0
    6.1940    2.7470   -0.8730 O   0  0  0  0  0
    7.9710    2.8180    0.4380 O   0  0  0  0  0
    2.9760    0.0490   -0.6110 C   0  0  0  0  0
    1.7290    0.4570    0.1760 C   0  0  0  0  0
    0.4800   -0.0370   -0.5560 C   0  0  0  0  0
   -0.7670    0.3710    0.2320 C   0  0  0  0  0
   -2.0170   -0.1230   -0.5000 C   0  0  0  0  0
   -3.2630    0.2850    0.2870 C   0  0  0  0  0
   -4.5130   -0.2080   -0.4450 C   0  0  0  0  0
   -5.7600    0.2000    0.3430 C   0  0  0  0  0
   -7.0090   -0.2940   -0.3890 C   0  0  0  0  0
   -8.2560    0.1140    0.3980 C   0  0  0  0  0
   -9.5060   -0.3800   -0.3330 C   0  0  0  0  0
  -10.7520    0.0280    0.4540 C   0  0  0  0  0
  -12.0020   -0.4660   -0.2780 C   0  0  0  0  0
  -13.2490   -0.0580    0.5100 C   0  0  0  0  0
  -14.4980   -0.5510   -0.2220 C   0  0  0  0  0
    8.7620   -3.7200    0.4080 O   0  0  0  0  0
    5.5170   -0.2050   -1.2320 H   0  0  0  0  0
    2.9390    0.4930   -1.6060 H   0  0  0  0  0
    3.0110   -1.0370   -0.6990 H   0  0  0  0  0
    6.4600    0.6970    1.3800 H   0  0  0  0  0
    7.9290   -0.1460   -1.1580 H   0  0  0  0  0
    8.7240    0.2700    0.3800 H   0  0  0  0  0
    7.4670   -1.5390    1.5190 H   0  0  0  0  0
    6.6720   -1.9540   -0.0180 H   0  0  0  0  0
    9.5360   -4.2380    0.1480 H   0  0  0  0  0
    8.1150    3.7320    0.1570 H   0  0  0  0  0
    1.7670    0.0130    1.1710 H   0  0  0  0  0
    1.6940    1.5430    0.2640 H   0  0  0  0  0
    0.4420    0.4070   -1.5510 H   0  0  0  0  0
    0.5150   -1.1230   -0.6430 H   0  0  0  0  0
   -0.7300   -0.0730    1.2270 H   0  0  0  0  0
   -0.8020    1.4570    0.3190 H   0  0  0  0  0
   -2.0540    0.3210   -1.4950 H   0  0  0  0  0
   -1.9810   -1.2080   -0.5880 H   0  0  0  0  0
   -3.2260   -0.1580    1.2820 H   0  0  0  0  0
   -3.2990    1.3710    0.3750 H   0  0  0  0  0
   -4.5500    0.2350   -1.4390 H   0  0  0  0  0
   -4.4780   -1.2940   -0.5320 H   0  0  0  0  0
   -5.7220   -0.2440    1.3380 H   0  0  0  0  0
   -5.7950    1.2860    0.4310 H   0  0  0  0  0
   -7.0470    0.1500   -1.3840 H   0  0  0  0  0
   -6.9740   -1.3800   -0.4770 H   0  0  0  0  0
   -8.2190   -0.3300    1.3930 H   0  0  0  0  0
   -8.2920    1.2000    0.4860 H   0  0  0  0  0
   -9.5430    0.0640   -1.3280 H   0  0  0  0  0
   -9.4700   -1.4660   -0.4210 H   0  0  0  0  0
  -10.7150   -0.4160    1.4490 H   0  0  0  0  0
  -10.7880    1.1140    0.5420 H   0  0  0  0  0
  -12.0400   -0.0220   -1.2730 H   0  0  0  0  0
  -11.9670   -1.5510   -0.3660 H   0  0  0  0  0
  -13.2120   -0.5010    1.5050 H   0  0  0  0  0
  -13.2840    1.0280    0.5970 H   0  0  0  0  0
  -14.4630   -1.6370   -0.3100 H   0  0  0  0  0
  -15.3870   -0.2610    0.3390 H   0  0  0  0  0
  -14.5360   -0.1080   -1.2170 H   0  0  0  0  0
  1  2  2  0  0  0
  2  3  1  0  0  0
  2 12  1  0  0  0
  3  4  1  0  0  0
  3 28  1  0  0  0
  4  5  1  0  0  0
  4  9  1  0  0  0
  4 31  1  0  0  0
  5  6  1  0  0  0
  5 32  1  0  0  0
  5 33  1  0  0  0
  6  7  1  0  0  0
  6 34  1  0  0  0
  6 35  1  0  0  0
  7  8  2  0  0  0
  7 27  1  0  0  0
  9 10  2  0  0  0
  9 11  1  0  0  0
 11 37  1  0  0  0
 12 13  1  0  0  0
 12 29  1  0  0  0
 12 30  1  0  0  0
 13 14  1  0  0  0
 13 38  1  0  0  0
 13 39  1  0  0  0
 14 15  1  0  0  0
 14 40  1  0  0  0
 14 41  1  0  0  0
 15 16  1  0  0  0
 15 42  1  0  0  0
 15 43  1  0  0  0
 16 17  1  0  0  0
 16 44  1  0  0  0
 16 45  1  0  0  0
 17 18  1  0  0  0
 17 46  1  0  0  0
 17 47  1  0  0  0
 18 19  1  0  0  0
 18 48  1  0  0  0
 18 49  1  0  0  0
 19 20  1  0  0  0
 19 50  1  0  0  0
 19 51  1  0  0  0
 20 21  1  0  0  0
 20 52  1  0  0  0
 20 53  1  0  0  0
 21 22  1  0  0  0
 21 54  1  0  0  0
 21 55  1  0  0  0
 22 23  1  0  0  0
 22 56  1  0  0  0
 22 57  1  0  0  0
 23 24  1  0  0  0
 23 58  1  0  0  0
 23 59  1  0  0  0
 24 25  1  0  0  0
 24 60  1  0  0  0
 24 61  1  0  0  0
 25 26  1  0  0  0
 25 62  1  0  0  0
 25 63  1  0  0  0
 26 64  1  0  0  0
 26 65  1  0  0  0
 26 66  1  0  0  0
 27 36  1  0  0  0
M  END
$$$$
