DB8
  CCTOOLS-0919241042

 65 68  0  0  0  0  0  0  0  0999 V2000
    0.4690    3.9360    0.0800 C   0  0  0  0  0
   -7.7230    0.3630   -1.6040 O   0  0  0  0  0
    6.5730   -0.9570    0.1930 C   0  0  0  0  0
   -4.9780   -2.2020   -0.9640 N   0  0  0  0  0
   -8.6300   -0.3610    1.1120 CL  0  0  0  0  0
   -3.3930    0.1070    2.3480 CL  0  0  0  0  0
   -3.8850   -1.9230   -0.8340 C   0  0  0  0  0
   -1.5160   -2.5660   -0.6590 C   0  0  0  0  0
   -5.9750   -0.0840    1.5590 C   0  0  0  0  0
   -5.4140    0.5720   -1.0770 C   0  0  0  0  0
    1.5410   -0.7250   -0.2210 C   0  0  0  0  0
   -0.3050    1.3800   -0.2110 C   0  0  0  0  0
    5.6140    0.2350    0.2140 C   0  0  0  0  0
    4.1770   -0.2640    0.0460 C   0  0  0  0  0
   12.0840    0.2260   -0.1790 C   0  0  0  0  0
    8.3700    0.3230   -0.8040 C   0  0  0  0  0
    8.8760   -1.5990    0.5770 C   0  0  0  0  0
    9.7800    0.8680   -0.5620 C   0  0  0  0  0
   10.2860   -1.0550    0.8180 C   0  0  0  0  0
   -0.2490   -2.2720   -0.5170 N   0  0  0  0  0
   -3.0730    0.7820   -0.5290 N   0  0  0  0  0
    1.4630    2.9090    0.0890 O   0  0  0  0  0
    3.2810    0.8490    0.0660 O   0  0  0  0  0
   -6.7180    0.3040   -0.6910 C   0  0  0  0  0
   -6.9970   -0.0240    0.6290 C   0  0  0  0  0
   -4.6740    0.1820    1.1780 C   0  0  0  0  0
   -2.5060   -1.5710   -0.6710 C   0  0  0  0  0
   -4.3890    0.5120   -0.1430 C   0  0  0  0  0
    1.0290    1.6290   -0.0610 C   0  0  0  0  0
    1.9570    0.5780   -0.0720 C   0  0  0  0  0
   -2.1300   -0.2270   -0.5220 C   0  0  0  0  0
    0.1750   -1.0080   -0.3700 C   0  0  0  0  0
   -0.7550    0.0600   -0.3650 C   0  0  0  0  0
    7.9520   -0.4780    0.3550 N   0  0  0  0  0
   10.7040   -0.2530   -0.3400 N   0  0  0  0  0
   -7.3820    0.8160   -2.9160 C   0  0  0  0  0
    0.9480    4.9060    0.2080 H   0  0  0  0  0
   -0.0640    3.9170   -0.8710 H   0  0  0  0  0
   -0.2350    3.7680    0.8950 H   0  0  0  0  0
    6.3260   -1.6370    1.0090 H   0  0  0  0  0
    6.4790   -1.4820   -0.7570 H   0  0  0  0  0
   -1.8070   -3.6000   -0.7730 H   0  0  0  0  0
   -6.1950   -0.3360    2.5860 H   0  0  0  0  0
   -5.1950    0.8280   -2.1030 H   0  0  0  0  0
    2.2640   -1.5280   -0.2230 H   0  0  0  0  0
   -1.0110    2.1970   -0.2100 H   0  0  0  0  0
    5.7070    0.7600    1.1650 H   0  0  0  0  0
    5.8600    0.9140   -0.6020 H   0  0  0  0  0
    4.0840   -0.7890   -0.9050 H   0  0  0  0  0
    3.9310   -0.9430    0.8620 H   0  0  0  0  0
   12.7560   -0.6270   -0.0840 H   0  0  0  0  0
   12.3680    0.8160   -1.0510 H   0  0  0  0  0
   12.1520    0.8440    0.7160 H   0  0  0  0  0
    7.6780    1.1540   -0.9400 H   0  0  0  0  0
    8.3700   -0.3010   -1.6970 H   0  0  0  0  0
    8.8820   -2.2460   -0.3010 H   0  0  0  0  0
    8.5520   -2.1710    1.4470 H   0  0  0  0  0
   10.1040    1.4390   -1.4330 H   0  0  0  0  0
    9.7750    1.5150    0.3150 H   0  0  0  0  0
   10.2870   -0.4300    1.7120 H   0  0  0  0  0
   10.9790   -1.8850    0.9550 H   0  0  0  0  0
   -2.8220    1.6780   -0.8020 H   0  0  0  0  0
   -8.2870    0.8970   -3.5190 H   0  0  0  0  0
   -6.9010    1.7910   -2.8500 H   0  0  0  0  0
   -6.6990    0.1040   -3.3800 H   0  0  0  0  0
  1 22  1  0  0  0
  1 37  1  0  0  0
  1 38  1  0  0  0
  1 39  1  0  0  0
  3 40  1  0  0  0
  3 41  1  0  0  0
  5 25  1  0  0  0
  6 26  1  0  0  0
  7  4  3  0  0  0
  8 42  1  0  0  0
  9 26  2  0  0  0
  9 25  1  0  0  0
  9 43  1  0  0  0
 10 44  1  0  0  0
 11 32  1  0  0  0
 11 45  1  0  0  0
 12 33  1  0  0  0
 12 46  1  0  0  0
 13  3  1  0  0  0
 13 14  1  0  0  0
 13 47  1  0  0  0
 13 48  1  0  0  0
 14 49  1  0  0  0
 14 50  1  0  0  0
 15 35  1  0  0  0
 15 51  1  0  0  0
 15 52  1  0  0  0
 15 53  1  0  0  0
 16 54  1  0  0  0
 16 55  1  0  0  0
 17 34  1  0  0  0
 17 56  1  0  0  0
 17 57  1  0  0  0
 18 16  1  0  0  0
 18 58  1  0  0  0
 18 59  1  0  0  0
 19 17  1  0  0  0
 19 35  1  0  0  0
 19 60  1  0  0  0
 19 61  1  0  0  0
 20  8  1  0  0  0
 21 31  1  0  0  0
 21 62  1  0  0  0
 22 29  1  0  0  0
 23 14  1  0  0  0
 23 30  1  0  0  0
 24  2  1  0  0  0
 24 10  1  0  0  0
 25 24  2  0  0  0
 26 28  1  0  0  0
 27  7  1  0  0  0
 27  8  2  0  0  0
 28 10  2  0  0  0
 28 21  1  0  0  0
 29 12  2  0  0  0
 29 30  1  0  0  0
 30 11  2  0  0  0
 31 27  1  0  0  0
 32 20  2  0  0  0
 33 31  2  0  0  0
 33 32  1  0  0  0
 34  3  1  0  0  0
 34 16  1  0  0  0
 35 18  1  0  0  0
 36  2  1  0  0  0
 36 63  1  0  0  0
 36 64  1  0  0  0
 36 65  1  0  0  0
M  END
$$$$
