DLP
  CCTOOLS-0919241044

134133  0  0  1  0  0  0  0  0999 V2000
    0.5300    3.2260    2.3040 C   0  0  0  0  0
    1.2400    2.0420    2.9630 C   0  0  0  0  0
    0.2000    1.0600    3.5060 C   0  0  0  0  0
   -2.5240    4.7680   -1.1710 C   0  0  0  0  0
   -3.4280    4.3990   -2.3490 C   0  0  0  0  0
   -5.3990    4.6920   -1.0140 C   0  0  0  0  0
   -5.4770    3.3230   -2.9820 C   0  0  0  0  0
   -4.2760    2.5730   -1.0450 C   0  0  0  0  0
   -1.7030   -0.1890    2.6820 C   0  0  0  0  0
   -2.6400   -0.5920    1.5730 C   0  0  0  0  0
   -3.6810   -1.5730    2.1150 C   0  0  0  0  0
   -4.6320   -1.9830    0.9890 C   0  0  0  0  0
   -5.6720   -2.9640    1.5310 C   0  0  0  0  0
   -6.6230   -3.3740    0.4050 C   0  0  0  0  0
   -7.6640   -4.3550    0.9470 C   0  0  0  0  0
   -8.6150   -4.7640   -0.1790 C   0  0  0  0  0
   -9.6400   -5.7310    0.3550 C   0  0  0  0  0
  -10.9170   -5.4940    0.1820 C   0  0  0  0  0
  -11.3590   -4.3450   -0.6870 C   0  0  0  0  0
  -12.3450   -4.8420   -1.7130 C   0  0  0  0  0
  -13.5120   -4.2600   -1.8360 C   0  0  0  0  0
  -13.8080   -2.9960   -1.0700 C   0  0  0  0  0
  -14.3170   -1.9230   -2.0340 C   0  0  0  0  0
  -14.6170   -0.6400   -1.2560 C   0  0  0  0  0
  -15.1270    0.4330   -2.2200 C   0  0  0  0  0
  -15.4270    1.7160   -1.4420 C   0  0  0  0  0
    3.3490    1.7520    1.8110 C   0  0  0  0  0
    4.2140    1.0550    0.7930 C   0  0  0  0  0
    5.6120    1.6770    0.7990 C   0  0  0  0  0
    6.4900    0.9700   -0.2350 C   0  0  0  0  0
    7.8880    1.5920   -0.2290 C   0  0  0  0  0
    8.7660    0.8850   -1.2630 C   0  0  0  0  0
   10.1630    1.5070   -1.2570 C   0  0  0  0  0
   11.0420    0.8000   -2.2910 C   0  0  0  0  0
   12.4180    1.4130   -2.2840 C   0  0  0  0  0
   13.4740    0.6520   -2.1350 C   0  0  0  0  0
   13.3270   -0.8480   -2.1330 C   0  0  0  0  0
   14.2830   -1.4480   -3.1310 C   0  0  0  0  0
   15.1610   -2.3400   -2.7430 C   0  0  0  0  0
   15.3340   -2.6370   -1.2760 C   0  0  0  0  0
   15.0200   -4.1120   -1.0140 C   0  0  0  0  0
   15.1970   -4.4130    0.4760 C   0  0  0  0  0
   14.8830   -5.8880    0.7380 C   0  0  0  0  0
   15.0590   -6.1890    2.2280 C   0  0  0  0  0
   -4.6450    3.7470   -1.8470 N   0  3  0  0  0
    2.0740    1.3700    1.9820 O   0  0  0  0  0
   -0.7030    0.6720    2.4370 O   0  0  0  0  0
   -1.8530   -0.6400    3.7930 O   0  0  0  0  0
    3.8040    2.6540    2.4740 O   0  0  0  0  0
   -1.9440    4.7430    1.7290 O   0  0  0  0  0
   -0.0010    5.0120    0.1410 O   0  5  0  0  0
   -0.3730    2.7440    1.3070 O   0  0  0  0  0
   -2.0200    3.5760   -0.5660 O   0  0  0  0  0
   -1.0820    4.0360    0.6590 P   0  0  0  0  0
   -0.0250    3.7820    3.0590 H   0  0  0  0  0
    1.2680    3.8800    1.8400 H   0  0  0  0  0
    1.8620    2.4020    3.7830 H   0  0  0  0  0
   -0.3680    1.5370    4.3050 H   0  0  0  0  0
    0.7030    0.1760    3.8950 H   0  0  0  0  0
   -3.0980    5.3340   -0.4370 H   0  0  0  0  0
   -1.6920    5.3750   -1.5280 H   0  0  0  0  0
   -3.7000    5.3020   -2.8960 H   0  0  0  0  0
   -2.8980    3.7170   -3.0140 H   0  0  0  0  0
   -5.6730    5.5630   -1.6090 H   0  0  0  0  0
   -6.3020    4.2080   -0.6410 H   0  0  0  0  0
   -4.7820    5.0070   -0.1720 H   0  0  0  0  0
   -4.9170    2.6210   -3.6000 H   0  0  0  0  0
   -6.3800    2.8390   -2.6090 H   0  0  0  0  0
   -5.7510    4.1940   -3.5770 H   0  0  0  0  0
   -3.8330    2.9000   -0.1040 H   0  0  0  0  0
   -5.1660    1.9780   -0.8400 H   0  0  0  0  0
   -3.5540    1.9690   -1.5950 H   0  0  0  0  0
   -2.0720   -1.0690    0.7730 H   0  0  0  0  0
   -3.1430    0.2930    1.1830 H   0  0  0  0  0
   -4.2480   -1.0970    2.9140 H   0  0  0  0  0
   -3.1770   -2.4580    2.5050 H   0  0  0  0  0
   -4.0640   -2.4600    0.1890 H   0  0  0  0  0
   -5.1350   -1.0980    0.5990 H   0  0  0  0  0
   -6.2400   -2.4870    2.3300 H   0  0  0  0  0
   -5.1690   -3.8490    1.9210 H   0  0  0  0  0
   -6.0560   -3.8500   -0.3950 H   0  0  0  0  0
   -7.1270   -2.4890    0.0150 H   0  0  0  0  0
   -8.2310   -3.8780    1.7460 H   0  0  0  0  0
   -7.1600   -5.2400    1.3370 H   0  0  0  0  0
   -8.0480   -5.2410   -0.9790 H   0  0  0  0  0
   -9.1180   -3.8800   -0.5690 H   0  0  0  0  0
   -9.3220   -6.6200    0.8800 H   0  0  0  0  0
  -11.6520   -6.1210    0.6630 H   0  0  0  0  0
  -10.4930   -3.9180   -1.1930 H   0  0  0  0  0
  -11.8310   -3.5820   -0.0690 H   0  0  0  0  0
  -12.0890   -5.6790   -2.3470 H   0  0  0  0  0
  -14.2620   -4.6850   -2.4860 H   0  0  0  0  0
  -12.8980   -2.6450   -0.5830 H   0  0  0  0  0
  -14.5680   -3.1980   -0.3160 H   0  0  0  0  0
  -15.2270   -2.2740   -2.5200 H   0  0  0  0  0
  -13.5560   -1.7210   -2.7880 H   0  0  0  0  0
  -13.7070   -0.2890   -0.7690 H   0  0  0  0  0
  -15.3780   -0.8420   -0.5020 H   0  0  0  0  0
  -16.0370    0.0820   -2.7070 H   0  0  0  0  0
  -14.3660    0.6350   -2.9740 H   0  0  0  0  0
  -15.7900    2.4810   -2.1290 H   0  0  0  0  0
  -16.1880    1.5150   -0.6880 H   0  0  0  0  0
  -14.5170    2.0680   -0.9550 H   0  0  0  0  0
    4.2870   -0.0040    1.0410 H   0  0  0  0  0
    3.7720    1.1660   -0.1970 H   0  0  0  0  0
    5.5390    2.7360    0.5500 H   0  0  0  0  0
    6.0550    1.5660    1.7890 H   0  0  0  0  0
    6.5630   -0.0890    0.0130 H   0  0  0  0  0
    6.0470    1.0810   -1.2250 H   0  0  0  0  0
    7.8150    2.6510   -0.4770 H   0  0  0  0  0
    8.3310    1.4810    0.7610 H   0  0  0  0  0
    8.8390   -0.1740   -1.0140 H   0  0  0  0  0
    8.3230    0.9960   -2.2530 H   0  0  0  0  0
   10.0910    2.5660   -1.5050 H   0  0  0  0  0
   10.6060    1.3960   -0.2670 H   0  0  0  0  0
   11.1140   -0.2590   -2.0420 H   0  0  0  0  0
   10.5990    0.9110   -3.2800 H   0  0  0  0  0
   12.5350    2.4800   -2.4030 H   0  0  0  0  0
   14.4490    1.0990   -2.0140 H   0  0  0  0  0
   13.5500   -1.2340   -1.1390 H   0  0  0  0  0
   12.3050   -1.1130   -2.4050 H   0  0  0  0  0
   14.2460   -1.1420   -4.1660 H   0  0  0  0  0
   15.7590   -2.8630   -3.4750 H   0  0  0  0  0
   16.3630   -2.4270   -0.9820 H   0  0  0  0  0
   14.6560   -2.0120   -0.6960 H   0  0  0  0  0
   13.9920   -4.3220   -1.3080 H   0  0  0  0  0
   15.6990   -4.7360   -1.5940 H   0  0  0  0  0
   16.2250   -4.2030    0.7700 H   0  0  0  0  0
   14.5180   -3.7880    1.0560 H   0  0  0  0  0
   13.8550   -6.0980    0.4440 H   0  0  0  0  0
   15.5620   -6.5120    0.1580 H   0  0  0  0  0
   16.0880   -5.9790    2.5220 H   0  0  0  0  0
   14.3800   -5.5640    2.8080 H   0  0  0  0  0
   14.8360   -7.2400    2.4150 H   0  0  0  0  0
  1  2  1  0  0  0
  1 52  1  0  0  0
  1 55  1  0  0  0
  1 56  1  0  0  0
  2  3  1  0  0  0
  2 46  1  0  0  0
  2 57  1  0  0  0
  3 47  1  0  0  0
  3 58  1  0  0  0
  3 59  1  0  0  0
  4  5  1  0  0  0
  4 53  1  0  0  0
  4 60  1  0  0  0
  4 61  1  0  0  0
  5 45  1  0  0  0
  5 62  1  0  0  0
  5 63  1  0  0  0
  6 45  1  0  0  0
  6 64  1  0  0  0
  6 65  1  0  0  0
  6 66  1  0  0  0
  7 45  1  0  0  0
  7 67  1  0  0  0
  7 68  1  0  0  0
  7 69  1  0  0  0
  8 45  1  0  0  0
  8 70  1  0  0  0
  8 71  1  0  0  0
  8 72  1  0  0  0
  9 10  1  0  0  0
  9 47  1  0  0  0
  9 48  2  0  0  0
 10 11  1  0  0  0
 10 73  1  0  0  0
 10 74  1  0  0  0
 11 12  1  0  0  0
 11 75  1  0  0  0
 11 76  1  0  0  0
 12 13  1  0  0  0
 12 77  1  0  0  0
 12 78  1  0  0  0
 13 14  1  0  0  0
 13 79  1  0  0  0
 13 80  1  0  0  0
 14 15  1  0  0  0
 14 81  1  0  0  0
 14 82  1  0  0  0
 15 16  1  0  0  0
 15 83  1  0  0  0
 15 84  1  0  0  0
 16 17  1  0  0  0
 16 85  1  0  0  0
 16 86  1  0  0  0
 17 18  2  0  0  0
 17 87  1  0  0  0
 18 19  1  0  0  0
 18 88  1  0  0  0
 19 20  1  0  0  0
 19 89  1  0  0  0
 19 90  1  0  0  0
 20 21  2  0  0  0
 20 91  1  0  0  0
 21 22  1  0  0  0
 21 92  1  0  0  0
 22 23  1  0  0  0
 22 93  1  0  0  0
 22 94  1  0  0  0
 23 24  1  0  0  0
 23 95  1  0  0  0
 23 96  1  0  0  0
 24 25  1  0  0  0
 24 97  1  0  0  0
 24 98  1  0  0  0
 25 26  1  0  0  0
 25 99  1  0  0  0
 25100  1  0  0  0
 26101  1  0  0  0
 26102  1  0  0  0
 26103  1  0  0  0
 27 28  1  0  0  0
 27 46  1  0  0  0
 27 49  2  0  0  0
 28 29  1  0  0  0
 28104  1  0  0  0
 28105  1  0  0  0
 29 30  1  0  0  0
 29106  1  0  0  0
 29107  1  0  0  0
 30 31  1  0  0  0
 30108  1  0  0  0
 30109  1  0  0  0
 31 32  1  0  0  0
 31110  1  0  0  0
 31111  1  0  0  0
 32 33  1  0  0  0
 32112  1  0  0  0
 32113  1  0  0  0
 33 34  1  0  0  0
 33114  1  0  0  0
 33115  1  0  0  0
 34 35  1  0  0  0
 34116  1  0  0  0
 34117  1  0  0  0
 35 36  2  0  0  0
 35118  1  0  0  0
 36 37  1  0  0  0
 36119  1  0  0  0
 37 38  1  0  0  0
 37120  1  0  0  0
 37121  1  0  0  0
 38 39  2  0  0  0
 38122  1  0  0  0
 39 40  1  0  0  0
 39123  1  0  0  0
 40 41  1  0  0  0
 40124  1  0  0  0
 40125  1  0  0  0
 41 42  1  0  0  0
 41126  1  0  0  0
 41127  1  0  0  0
 42 43  1  0  0  0
 42128  1  0  0  0
 42129  1  0  0  0
 43 44  1  0  0  0
 43130  1  0  0  0
 43131  1  0  0  0
 44132  1  0  0  0
 44133  1  0  0  0
 44134  1  0  0  0
 50 54  2  0  0  0
 51 54  1  0  0  0
 52 54  1  0  0  0
 53 54  1  0  0  0
M  CHG  1  45   1
M  CHG  1  51  -1
M  END
$$$$
