DVA
  CCTOOLS-0919241028

 19 18  0  0  1  0  0  0  0  0999 V2000
   -1.8970   -0.3060    0.2290 N   0  0  0  0  0
   -0.4410   -0.4650    0.1240 C   0  0  0  0  0
    0.2430    0.3900    1.1910 C   0  0  0  0  0
   -0.2190   -0.0560    2.5790 C   0  0  0  0  0
    1.7600    0.2240    1.0820 C   0  0  0  0  0
    0.0150   -0.0250   -1.2420 C   0  0  0  0  0
   -0.5910    0.8360   -1.8330 O   0  0  0  0  0
    1.0960   -0.5900   -1.8030 O   0  0  0  0  0
   -2.3000   -0.8010   -0.5520 H   0  0  0  0  0
   -2.0930    0.6730    0.0830 H   0  0  0  0  0
   -0.1780   -1.5120    0.2750 H   0  0  0  0  0
   -0.0180    1.4370    1.0400 H   0  0  0  0  0
    0.2680    0.5540    3.3390 H   0  0  0  0  0
   -1.3000    0.0620    2.6560 H   0  0  0  0  0
    0.0420   -1.1030    2.7300 H   0  0  0  0  0
    2.0230   -0.8220    1.2330 H   0  0  0  0  0
    2.0910    0.5420    0.0930 H   0  0  0  0  0
    2.2480    0.8340    1.8420 H   0  0  0  0  0
    1.3890   -0.3080   -2.6800 H   0  0  0  0  0
  1  2  1  0  0  0
  1  9  1  0  0  0
  1 10  1  0  0  0
  2  3  1  0  0  0
  2  6  1  0  0  0
  2 11  1  0  0  0
  3  4  1  0  0  0
  3  5  1  0  0  0
  3 12  1  0  0  0
  4 13  1  0  0  0
  4 14  1  0  0  0
  4 15  1  0  0  0
  5 16  1  0  0  0
  5 17  1  0  0  0
  5 18  1  0  0  0
  6  7  2  0  0  0
  6  8  1  0  0  0
  8 19  1  0  0  0
M  END
$$$$
