EKY
  CCTOOLS-0919241031

 46 48  0  0  0  0  0  0  0  0999 V2000
   -1.3170   -0.8840    0.3540 C   0  0  0  0  0
    5.5650    0.7430   -0.0070 C   0  0  0  0  0
    3.2430    0.1490    0.1200 C   0  0  0  0  0
   -0.5770   -1.1850    1.4890 C   0  0  0  0  0
    4.2350    1.1130    0.1200 C   0  0  0  0  0
   -5.5880    0.5960   -1.4290 C   0  0  0  0  0
   -5.1280    0.3220    0.9070 C   0  0  0  0  0
   -6.8800    0.9930   -1.1280 C   0  0  0  0  0
   -7.2950    1.0560    0.1880 C   0  0  0  0  0
   -3.3090   -0.1800   -0.7370 C   0  0  0  0  0
    3.5760   -1.1890   -0.0070 C   0  0  0  0  0
   -4.7130    0.2570   -0.4100 C   0  0  0  0  0
    1.3100   -1.7240    0.1120 C   0  0  0  0  0
    4.9120   -1.5640   -0.1350 C   0  0  0  0  0
    5.9050   -0.5960   -0.1350 C   0  0  0  0  0
   -0.7420   -1.0100   -0.9020 C   0  0  0  0  0
    0.5690   -1.4290   -1.0230 C   0  0  0  0  0
    0.7330   -1.6040    1.3680 C   0  0  0  0  0
   -6.4190    0.7240    1.2070 C   0  0  0  0  0
    6.1160    3.0530    0.1160 C   0  0  0  0  0
    7.3400    3.9700    0.0890 C   0  0  0  0  0
   -5.1820    0.5340   -2.7160 F   0  0  0  0  0
   -6.8240    0.7870    2.4940 F   0  0  0  0  0
    5.2520   -2.9160   -0.2630 N   0  0  0  0  0
   -2.6070   -0.4720    0.4730 O   0  0  0  0  0
    2.6000   -2.1370   -0.0070 O   0  0  0  0  0
    6.5380    1.6930   -0.0130 O   0  0  0  0  0
    2.2080    0.4400    0.2200 H   0  0  0  0  0
   -1.0260   -1.0910    2.4670 H   0  0  0  0  0
    3.9730    2.1560    0.2200 H   0  0  0  0  0
   -4.4460    0.0580    1.7010 H   0  0  0  0  0
   -7.5630    1.2530   -1.9230 H   0  0  0  0  0
   -8.3030    1.3660    0.4230 H   0  0  0  0  0
   -3.3430   -1.0730   -1.3620 H   0  0  0  0  0
   -2.7950    0.6180   -1.2710 H   0  0  0  0  0
    6.9410   -0.8840   -0.2340 H   0  0  0  0  0
   -1.3190   -0.7800   -1.7850 H   0  0  0  0  0
    1.0180   -1.5220   -2.0000 H   0  0  0  0  0
    1.3100   -1.8330    2.2520 H   0  0  0  0  0
    5.5870    3.1810    1.0600 H   0  0  0  0  0
    5.4530    3.3070   -0.7100 H   0  0  0  0  0
    8.0040    3.7160    0.9150 H   0  0  0  0  0
    7.8700    3.8420   -0.8550 H   0  0  0  0  0
    7.0190    5.0070    0.1880 H   0  0  0  0  0
    4.5570   -3.5930   -0.2620 H   0  0  0  0  0
    6.1820   -3.1760   -0.3520 H   0  0  0  0  0
  1 25  1  0  0  0
  2  5  2  0  0  0
  3 28  1  0  0  0
  4  1  2  0  0  0
  4 29  1  0  0  0
  5  3  1  0  0  0
  5 30  1  0  0  0
  6 22  1  0  0  0
  6  8  2  0  0  0
  7 12  2  0  0  0
  7 19  1  0  0  0
  7 31  1  0  0  0
  8 32  1  0  0  0
  9  8  1  0  0  0
  9 33  1  0  0  0
 10 12  1  0  0  0
 10 34  1  0  0  0
 10 35  1  0  0  0
 11 26  1  0  0  0
 11  3  2  0  0  0
 12  6  1  0  0  0
 13 18  2  0  0  0
 13 17  1  0  0  0
 14 11  1  0  0  0
 15 14  2  0  0  0
 15  2  1  0  0  0
 15 36  1  0  0  0
 16  1  1  0  0  0
 16 37  1  0  0  0
 17 16  2  0  0  0
 17 38  1  0  0  0
 18  4  1  0  0  0
 18 39  1  0  0  0
 19  9  2  0  0  0
 20 21  1  0  0  0
 20 40  1  0  0  0
 20 41  1  0  0  0
 21 42  1  0  0  0
 21 43  1  0  0  0
 21 44  1  0  0  0
 23 19  1  0  0  0
 24 14  1  0  0  0
 24 45  1  0  0  0
 24 46  1  0  0  0
 25 10  1  0  0  0
 26 13  1  0  0  0
 27  2  1  0  0  0
 27 20  1  0  0  0
M  END
$$$$
