EZX
  CCTOOLS-0919241033

 52 56  0  0  1  0  0  0  0  0999 V2000
    0.9990   -1.0740   -0.5960 N   0  0  0  0  0
    5.8820    2.2300   -0.6830 N   0  0  0  0  0
   -0.1930   -0.2360   -0.7820 C   0  0  0  0  0
    1.3090   -1.2380    0.8310 C   0  0  0  0  0
    2.5100   -2.1740    0.9880 C   0  0  0  0  0
    4.0890   -0.4310    0.8650 C   0  0  0  0  0
    3.9480   -0.0310    2.1750 C   0  0  0  0  0
    5.1550    2.0760    1.7750 C   0  0  0  0  0
    5.0350    0.2990   -1.3830 C   0  0  0  0  0
    3.3460   -1.4610   -1.1600 C   0  0  0  0  0
    4.7720    0.4800    0.0460 C   0  0  0  0  0
   -7.5540   -0.2310    0.5050 C   0  0  0  0  0
   -7.6880    1.0290   -0.0600 C   0  0  0  0  0
   -6.5770    1.6920   -0.5610 C   0  0  0  0  0
   -3.7480   -1.9050    0.6270 O   0  0  0  0  0
   -3.8690   -0.8050    0.1300 C   0  0  0  0  0
   -2.6610   -0.0900   -0.4190 C   0  0  0  0  0
   -1.4190   -0.9620   -0.2250 C   0  0  0  0  0
    3.6610   -1.6050    0.2660 N   0  0  0  0  0
    4.4730    1.1890    2.5970 C   0  0  0  0  0
    5.3120    1.7070    0.4390 C   0  0  0  0  0
    5.7020    1.3730   -1.7610 C   0  0  0  0  0
    4.5130   -0.9640   -2.0250 C   0  0  0  0  0
    2.1500   -0.5210   -1.3250 C   0  0  0  0  0
   -5.1930   -0.1700    0.0620 C   0  0  0  0  0
   -6.3160   -0.8320    0.5710 C   0  0  0  0  0
   -8.9050    1.6120   -0.1220 F   0  0  0  0  0
   -5.3340    1.1030   -0.5010 C   0  0  0  0  0
    6.3460    3.0810   -0.7230 H   0  0  0  0  0
   -0.0600    0.7090   -0.2550 H   0  0  0  0  0
   -0.3380   -0.0410   -1.8450 H   0  0  0  0  0
    1.5450   -0.2670    1.2650 H   0  0  0  0  0
    0.4460   -1.6650    1.3430 H   0  0  0  0  0
    2.7570   -2.2760    2.0450 H   0  0  0  0  0
    2.2670   -3.1520    0.5730 H   0  0  0  0  0
    3.4280   -0.6640    2.8790 H   0  0  0  0  0
    5.5450    3.0100    2.1530 H   0  0  0  0  0
    3.0410   -2.4370   -1.5370 H   0  0  0  0  0
   -8.4220   -0.7410    0.8970 H   0  0  0  0  0
   -6.6880    2.6730   -0.9990 H   0  0  0  0  0
   -2.8060    0.1050   -1.4820 H   0  0  0  0  0
   -2.5280    0.8550    0.1080 H   0  0  0  0  0
   -1.5530   -1.9070   -0.7530 H   0  0  0  0  0
   -1.2750   -1.1570    0.8370 H   0  0  0  0  0
    4.3410    1.4630    3.6330 H   0  0  0  0  0
    6.0580    1.5580   -2.7630 H   0  0  0  0  0
    4.1630   -0.7500   -3.0340 H   0  0  0  0  0
    5.3000   -1.7170   -2.0550 H   0  0  0  0  0
    1.9020   -0.4280   -2.3820 H   0  0  0  0  0
    2.4000    0.4610   -0.9210 H   0  0  0  0  0
   -6.2130   -1.8110    1.0150 H   0  0  0  0  0
   -4.4700    1.6210   -0.8910 H   0  0  0  0  0
  1  4  1  0  0  0
  1 24  1  0  0  0
  2 29  1  0  0  0
  3  1  1  0  0  0
  3 30  1  0  0  0
  3 31  1  0  0  0
  4  5  1  0  0  0
  4 32  1  0  0  0
  4 33  1  0  0  0
  5 19  1  0  0  0
  5 34  1  0  0  0
  5 35  1  0  0  0
  6  7  2  0  0  0
  6 11  1  0  0  0
  7 20  1  0  0  0
  7 36  1  0  0  0
  8 37  1  0  0  0
  9 11  1  0  0  0
  9 22  2  0  0  0
 10 19  1  0  0  0
 10 23  1  0  0  0
 10 38  1  0  0  0
 11 21  2  0  0  0
 12 26  1  0  0  0
 12 39  1  0  0  0
 13 12  2  0  0  0
 13 14  1  0  0  0
 14 28  2  0  0  0
 14 40  1  0  0  0
 16 17  1  0  0  0
 16 15  2  0  0  0
 17 18  1  0  0  0
 17 41  1  0  0  0
 17 42  1  0  0  0
 18  3  1  0  0  0
 18 43  1  0  0  0
 18 44  1  0  0  0
 19  6  1  0  0  0
 20  8  2  0  0  0
 20 45  1  0  0  0
 21  8  1  0  0  0
 21  2  1  0  0  0
 22  2  1  0  0  0
 22 46  1  0  0  0
 23  9  1  0  0  0
 23 47  1  0  0  0
 23 48  1  0  0  0
 24 10  1  0  0  0
 24 49  1  0  0  0
 24 50  1  0  0  0
 25 16  1  0  0  0
 26 25  2  0  0  0
 26 51  1  0  0  0
 27 13  1  0  0  0
 28 25  1  0  0  0
 28 52  1  0  0  0
M  END
$$$$
