FI6
  CCTOOLS-0919241035

 72 76  0  0  1  0  0  0  0  0999 V2000
    4.3480   -3.9320   -0.1120 C   0  0  0  0  0
    2.9630   -3.4610   -0.5580 C   0  0  0  0  0
    1.0710   -2.3000    0.2970 C   0  0  0  0  0
    0.3970   -2.6630   -0.8600 C   0  0  0  0  0
   -0.8970   -2.2290   -1.0690 C   0  0  0  0  0
   -1.5230   -1.4290   -0.1220 C   0  0  0  0  0
   -0.8470   -1.0670    1.0360 C   0  0  0  0  0
    2.3480   -2.7230    0.5000 O   0  0  0  0  0
   -3.6420   -2.3570    1.2480 O   0  0  0  0  0
    0.7060    0.2340   -1.5230 O   0  0  0  0  0
    6.4520    0.8800   -0.6720 O   0  0  0  0  0
   -5.2020   -1.0080    0.1330 C   0  0  0  0  0
   -5.3670   -0.0180   -0.8620 C   0  0  0  0  0
   -7.6410    0.0320   -0.4750 C   0  0  0  0  0
   -7.5510   -0.9370    0.5130 C   0  0  0  0  0
   -6.3160   -1.4740    0.8320 C   0  0  0  0  0
   -3.0850   -0.0410   -1.2770 C   0  0  0  0  0
   -1.9230    0.5040   -2.0650 C   0  0  0  0  0
   -2.4460    1.2600   -3.2890 C   0  0  0  0  0
   -1.8080    2.5470   -0.5640 C   0  0  0  0  0
   -2.1540    2.1690    0.8540 C   0  0  0  0  0
   -3.3390    1.5170    1.1350 C   0  0  0  0  0
   -2.8430    1.4460    3.3830 C   0  0  0  0  0
   -1.6430    2.1010    3.1790 C   0  0  0  0  0
   -1.2840    2.4670    1.8920 C   0  0  0  0  0
    0.1750    1.2190   -1.0530 C   0  0  0  0  0
    0.9950    2.2200   -0.2800 C   0  0  0  0  0
    2.4550    1.8620   -0.3850 C   0  0  0  0  0
    3.1930    2.2850   -1.4750 C   0  0  0  0  0
    4.5320    1.9580   -1.5730 C   0  0  0  0  0
    5.1350    1.2040   -0.5770 C   0  0  0  0  0
    4.3920    0.7800    0.5150 C   0  0  0  0  0
    3.0560    1.1150    0.6120 C   0  0  0  0  0
    7.0030    0.0890    0.3830 C   0  0  0  0  0
    0.4470   -1.5020    1.2440 C   0  0  0  0  0
   -3.8480   -1.5080    0.4000 C   0  0  0  0  0
    8.3540   -0.1610    0.1210 F   0  0  0  0  0
    6.8830    0.7780    1.5940 F   0  0  0  0  0
    6.3110   -1.1240    0.4660 F   0  0  0  0  0
   -2.8360   -0.9880   -0.3350 N   0  0  0  0  0
   -6.5790    0.4600   -1.1240 N   0  0  0  0  0
   -4.2720    0.4230   -1.5290 N   0  0  0  0  0
   -1.1470    1.4180   -1.2220 N   0  0  0  0  0
   -3.6460    1.1790    2.3720 N   0  0  0  0  0
    4.2590   -4.4980    0.8150 H   0  0  0  0  0
    4.7820   -4.5680   -0.8850 H   0  0  0  0  0
    4.9910   -3.0670    0.0500 H   0  0  0  0  0
    3.0610   -2.8230   -1.4360 H   0  0  0  0  0
    2.3460   -4.3260   -0.8040 H   0  0  0  0  0
    0.8840   -3.2840   -1.5970 H   0  0  0  0  0
   -1.4220   -2.5100   -1.9700 H   0  0  0  0  0
   -1.3340   -0.4460    1.7730 H   0  0  0  0  0
   -8.6090    0.4460   -0.7190 H   0  0  0  0  0
   -8.4390   -1.2700    1.0300 H   0  0  0  0  0
   -6.2180   -2.2300    1.5970 H   0  0  0  0  0
   -1.2870   -0.3180   -2.3910 H   0  0  0  0  0
   -3.0920    0.6040   -3.8720 H   0  0  0  0  0
   -3.0130    2.1320   -2.9620 H   0  0  0  0  0
   -1.6060    1.5820   -3.9030 H   0  0  0  0  0
   -2.7200    2.8000   -1.1050 H   0  0  0  0  0
   -1.1380    3.4070   -0.5580 H   0  0  0  0  0
   -4.0220    1.2810    0.3320 H   0  0  0  0  0
   -3.1300    1.1570    4.3840 H   0  0  0  0  0
   -0.9930    2.3240    4.0130 H   0  0  0  0  0
   -0.3490    2.9730    1.7010 H   0  0  0  0  0
    0.8350    3.2160   -0.6930 H   0  0  0  0  0
    0.6920    2.2070    0.7660 H   0  0  0  0  0
    2.7230    2.8720   -2.2500 H   0  0  0  0  0
    5.1080    2.2890   -2.4250 H   0  0  0  0  0
    4.8600    0.1930    1.2920 H   0  0  0  0  0
    2.4770    0.7860    1.4620 H   0  0  0  0  0
    0.9720   -1.2200    2.1450 H   0  0  0  0  0
  1  2  1  0  0  0
  1 45  1  0  0  0
  1 46  1  0  0  0
  1 47  1  0  0  0
  2  8  1  0  0  0
  2 48  1  0  0  0
  2 49  1  0  0  0
  3 35  2  0  0  0
  3  4  1  0  0  0
  4  5  2  0  0  0
  4 50  1  0  0  0
  5  6  1  0  0  0
  5 51  1  0  0  0
  6 40  1  0  0  0
  7  6  2  0  0  0
  7 52  1  0  0  0
  8  3  1  0  0  0
  9 36  2  0  0  0
 10 26  2  0  0  0
 11 34  1  0  0  0
 11 31  1  0  0  0
 12 16  2  0  0  0
 12 13  1  0  0  0
 13 42  1  0  0  0
 13 41  2  0  0  0
 14 41  1  0  0  0
 14 53  1  0  0  0
 15 14  2  0  0  0
 15 54  1  0  0  0
 16 15  1  0  0  0
 16 55  1  0  0  0
 17 18  1  0  0  0
 17 42  2  0  0  0
 18 19  1  0  0  0
 18 56  1  0  0  0
 19 57  1  0  0  0
 19 58  1  0  0  0
 19 59  1  0  0  0
 20 60  1  0  0  0
 20 61  1  0  0  0
 21 25  1  0  0  0
 21 20  1  0  0  0
 22 21  2  0  0  0
 22 62  1  0  0  0
 23 24  1  0  0  0
 23 63  1  0  0  0
 24 25  2  0  0  0
 24 64  1  0  0  0
 25 65  1  0  0  0
 26 43  1  0  0  0
 27 26  1  0  0  0
 27 66  1  0  0  0
 27 67  1  0  0  0
 28 29  1  0  0  0
 28 27  1  0  0  0
 29 68  1  0  0  0
 30 29  2  0  0  0
 30 69  1  0  0  0
 31 30  1  0  0  0
 32 31  2  0  0  0
 32 33  1  0  0  0
 32 70  1  0  0  0
 33 28  2  0  0  0
 33 71  1  0  0  0
 34 39  1  0  0  0
 34 37  1  0  0  0
 35  7  1  0  0  0
 35 72  1  0  0  0
 36 40  1  0  0  0
 36 12  1  0  0  0
 38 34  1  0  0  0
 40 17  1  0  0  0
 43 20  1  0  0  0
 43 18  1  0  0  0
 44 23  2  0  0  0
 44 22  1  0  0  0
M  END
$$$$
