FI7
  CCTOOLS-0919241035

 50 52  0  0  0  0  0  0  0  0999 V2000
    7.2280    0.7590    0.2720 C   0  0  0  0  0
    6.4350   -1.4400    0.8110 C   0  0  0  0  0
   -2.1010   -0.4760   -0.3820 C   0  0  0  0  0
   -4.3340   -0.6830    0.3410 C   0  0  0  0  0
   -5.2800    0.2520    0.4370 C   0  0  0  0  0
   -4.8860    1.5710    0.7650 C   0  0  0  0  0
   -6.9220   -1.3410   -0.5330 C   0  0  0  0  0
   -4.6150   -2.1130   -0.0200 C   0  0  0  0  0
   -0.7180    1.5280    0.0890 C   0  0  0  0  0
   -0.6950    0.0180   -0.1580 C   0  0  0  0  0
   -0.0940   -0.6880    1.0590 C   0  0  0  0  0
    0.1550   -0.2840   -1.3930 C   0  0  0  0  0
    1.5610    0.2100   -1.1690 C   0  0  0  0  0
    3.6090    0.3710   -0.6430 C   0  0  0  0  0
    4.9740    0.0690   -0.1460 C   0  0  0  0  0
    5.9600    1.0510   -0.1990 C   0  0  0  0  0
    7.4690   -0.5120    0.7840 C   0  0  0  0  0
   -6.7400   -0.0180    0.2150 C   0  0  0  0  0
   -6.1010   -2.4230    0.1760 C   0  0  0  0  0
    2.5500   -0.4700   -0.6440 N   0  0  0  0  0
    5.2380   -1.1290    0.3580 N   0  0  0  0  0
    3.2060    1.5000   -1.1670 N   0  0  0  0  0
   -3.0320   -0.3170    0.5790 N   0  0  0  0  0
    8.7000   -0.8430    1.2530 O   0  0  0  0  0
    2.0350    1.4220   -1.4740 O   0  0  0  0  0
   -2.3940   -1.0170   -1.4270 O   0  0  0  0  0
   -3.7050    1.8500    0.8510 O   0  0  0  0  0
   -5.8200    2.5200    0.9830 O   0  0  0  0  0
    8.0130    1.5000    0.2390 H   0  0  0  0  0
    6.6150   -2.4280    1.2070 H   0  0  0  0  0
   -7.9760   -1.6200   -0.5300 H   0  0  0  0  0
   -6.5740   -1.2320   -1.5600 H   0  0  0  0  0
   -4.3450   -2.2830   -1.0620 H   0  0  0  0  0
   -4.0240   -2.7700    0.6180 H   0  0  0  0  0
   -1.3230    1.7430    0.9690 H   0  0  0  0  0
    0.2990    1.8850    0.2510 H   0  0  0  0  0
   -1.1460    2.0310   -0.7790 H   0  0  0  0  0
   -0.0780   -1.7640    0.8840 H   0  0  0  0  0
    0.9230   -0.3310    1.2220 H   0  0  0  0  0
   -0.7000   -0.4730    1.9400 H   0  0  0  0  0
    0.1720   -1.3600   -1.5690 H   0  0  0  0  0
   -0.2730    0.2190   -2.2610 H   0  0  0  0  0
    5.7380    2.0280   -0.6040 H   0  0  0  0  0
   -7.2450   -0.0750    1.1790 H   0  0  0  0  0
   -7.1740    0.7910   -0.3720 H   0  0  0  0  0
   -6.3370   -2.4250    1.2400 H   0  0  0  0  0
   -6.3310   -3.3970   -0.2550 H   0  0  0  0  0
   -2.7830    0.0550    1.4390 H   0  0  0  0  0
    8.8260   -0.6580    2.1930 H   0  0  0  0  0
   -5.4560    3.3890    1.2000 H   0  0  0  0  0
  1 17  2  0  0  0
  1 29  1  0  0  0
  2 30  1  0  0  0
  3 10  1  0  0  0
  3 26  2  0  0  0
  4 23  1  0  0  0
  4  5  2  0  0  0
  5  6  1  0  0  0
  6 27  2  0  0  0
  6 28  1  0  0  0
  7 18  1  0  0  0
  7 31  1  0  0  0
  7 32  1  0  0  0
  8  4  1  0  0  0
  8 33  1  0  0  0
  8 34  1  0  0  0
  9 10  1  0  0  0
  9 35  1  0  0  0
  9 36  1  0  0  0
  9 37  1  0  0  0
 10 11  1  0  0  0
 10 12  1  0  0  0
 11 38  1  0  0  0
 11 39  1  0  0  0
 11 40  1  0  0  0
 12 13  1  0  0  0
 12 41  1  0  0  0
 12 42  1  0  0  0
 13 20  2  0  0  0
 14 20  1  0  0  0
 14 15  1  0  0  0
 15 21  1  0  0  0
 16 15  2  0  0  0
 16  1  1  0  0  0
 16 43  1  0  0  0
 17  2  1  0  0  0
 17 24  1  0  0  0
 18  5  1  0  0  0
 18 44  1  0  0  0
 18 45  1  0  0  0
 19  8  1  0  0  0
 19  7  1  0  0  0
 19 46  1  0  0  0
 19 47  1  0  0  0
 21  2  2  0  0  0
 22 14  2  0  0  0
 23  3  1  0  0  0
 23 48  1  0  0  0
 24 49  1  0  0  0
 25 22  1  0  0  0
 25 13  1  0  0  0
 28 50  1  0  0  0
M  END
$$$$
