FLF
  CCTOOLS-0919241036

 30 31  0  0  0  0  0  0  0  0999 V2000
    0.2230    0.1040    3.2950 C   0  0  0  0  0
    2.3330   -0.4310    2.4590 O   0  0  0  0  0
   -0.5920    0.2210    4.4240 C   0  0  0  0  0
   -1.9250    0.5350    4.2780 C   0  0  0  0  0
    2.1970   -0.3190    4.6720 O   0  0  0  0  0
   -2.4630    0.7370    3.0170 C   0  0  0  0  0
   -1.6720    0.6250    1.8930 C   0  0  0  0  0
   -0.3230    0.3140    2.0190 C   0  0  0  0  0
    1.6500   -0.2320    3.4440 C   0  0  0  0  0
    0.4760    0.2010    0.8890 N   0  0  0  0  0
   -0.0750   -0.2420   -0.3140 C   0  0  0  0  0
    0.4000    0.2520   -1.5220 C   0  0  0  0  0
   -0.1430   -0.1930   -2.7110 C   0  0  0  0  0
   -1.1670   -1.1210   -2.7000 C   0  0  0  0  0
   -1.6480   -1.6110   -1.4990 C   0  0  0  0  0
   -1.1050   -1.1740   -0.3070 C   0  0  0  0  0
    0.3770    0.3370   -4.0220 C   0  0  0  0  0
   -0.3270   -0.2520   -5.0770 F   0  0  0  0  0
    0.2050    1.7250   -4.0650 F   0  0  0  0  0
    1.7370    0.0320   -4.1410 F   0  0  0  0  0
   -0.1780    0.0640    5.4090 H   0  0  0  0  0
   -2.5540    0.6250    5.1510 H   0  0  0  0  0
    3.1340   -0.5400    4.7700 H   0  0  0  0  0
   -3.5100    0.9840    2.9130 H   0  0  0  0  0
   -2.0990    0.7840    0.9140 H   0  0  0  0  0
    1.4170    0.4310    0.9360 H   0  0  0  0  0
    1.2000    0.9770   -1.5310 H   0  0  0  0  0
   -1.5930   -1.4640   -3.6310 H   0  0  0  0  0
   -2.4480   -2.3360   -1.4940 H   0  0  0  0  0
   -1.4800   -1.5580    0.6300 H   0  0  0  0  0
  1  3  2  0  0  0
  1  8  1  0  0  0
  1  9  1  0  0  0
  2  9  2  0  0  0
  3  4  1  0  0  0
  3 21  1  0  0  0
  4  6  2  0  0  0
  4 22  1  0  0  0
  5  9  1  0  0  0
  5 23  1  0  0  0
  6  7  1  0  0  0
  6 24  1  0  0  0
  7  8  2  0  0  0
  7 25  1  0  0  0
  8 10  1  0  0  0
 10 11  1  0  0  0
 10 26  1  0  0  0
 11 12  2  0  0  0
 11 16  1  0  0  0
 12 13  1  0  0  0
 12 27  1  0  0  0
 13 14  2  0  0  0
 13 17  1  0  0  0
 14 15  1  0  0  0
 14 28  1  0  0  0
 15 16  2  0  0  0
 15 29  1  0  0  0
 16 30  1  0  0  0
 17 18  1  0  0  0
 17 19  1  0  0  0
 17 20  1  0  0  0
M  END
$$$$
