FY5
  CCTOOLS-0919241037

 46 49  0  0  1  0  0  0  0  0999 V2000
   -5.4220    0.4070    0.5340 C   0  0  0  0  0
   -0.0140   -2.2150   -0.3640 C   0  0  0  0  0
    0.1360    0.3170   -0.5850 C   0  0  0  0  0
    2.2700    1.3800   -0.8550 C   0  0  0  0  0
   -4.1390    0.3800   -1.5320 C   0  0  0  0  0
   -4.0160    0.5620   -0.0220 C   0  0  0  0  0
   -3.3240    1.8530    0.3190 C   0  0  0  0  0
   -1.8050    1.7570    0.1250 C   0  0  0  0  0
   -1.3650    0.4420   -0.4810 C   0  0  0  0  0
   -1.8850   -0.7620    0.2980 C   0  0  0  0  0
   -3.3200   -0.6290    0.6700 C   0  0  0  0  0
   -4.2820   -1.7760    0.3310 C   0  0  0  0  0
   -5.6730   -1.0990    0.4910 C   0  0  0  0  0
   -1.5260   -2.0160   -0.4970 C   0  0  0  0  0
    0.7420   -0.9230   -0.5270 C   0  0  0  0  0
    0.8960    1.4620   -0.7510 C   0  0  0  0  0
    2.8890    0.1400   -0.7900 C   0  0  0  0  0
    2.1260   -1.0020   -0.6260 C   0  0  0  0  0
   -6.1490    1.2780    0.9170 O   0  0  0  0  0
    4.2410    0.0490   -0.8910 O   0  0  0  0  0
    4.7690   -1.1980    1.1520 O   0  0  0  0  0
    6.3530    0.2260    0.1410 O   0  0  0  0  0
    4.2750    1.1060    1.2160 O   0  0  0  0  0
    4.9680    0.1350    0.4440 S   0  0  0  0  0
    0.2000   -2.6270    0.6230 H   0  0  0  0  0
    0.3200   -2.9220   -1.1230 H   0  0  0  0  0
    2.8570    2.2770   -0.9880 H   0  0  0  0  0
   -4.9180    1.0400   -1.9150 H   0  0  0  0  0
   -3.1890    0.6260   -2.0070 H   0  0  0  0  0
   -4.3990   -0.6550   -1.7540 H   0  0  0  0  0
   -3.7250    2.6620   -0.3090 H   0  0  0  0  0
   -3.5420    2.1180    1.3650 H   0  0  0  0  0
   -1.4760    2.5830   -0.5210 H   0  0  0  0  0
   -1.3080    1.8910    1.0960 H   0  0  0  0  0
   -1.7120    0.3830   -1.5130 H   0  0  0  0  0
   -1.2980   -0.8120    1.2410 H   0  0  0  0  0
   -3.3790   -0.4700    1.7710 H   0  0  0  0  0
   -4.1350   -2.1460   -0.6790 H   0  0  0  0  0
   -4.1730   -2.5900    1.0520 H   0  0  0  0  0
   -6.1390   -1.4250    1.4200 H   0  0  0  0  0
   -6.3100   -1.3490   -0.3560 H   0  0  0  0  0
   -1.7890   -1.8810   -1.5440 H   0  0  0  0  0
   -2.0460   -2.8790   -0.0850 H   0  0  0  0  0
    0.4170    2.4280   -0.8060 H   0  0  0  0  0
    2.6110   -1.9660   -0.5720 H   0  0  0  0  0
    5.1950   -1.2510    2.0180 H   0  0  0  0  0
  1 13  1  0  0  0
  2 14  1  0  0  0
  2 25  1  0  0  0
  2 26  1  0  0  0
  3  9  1  0  0  0
  3 15  2  0  0  0
  4 16  2  0  0  0
  4 17  1  0  0  0
  4 27  1  0  0  0
  5  6  1  0  0  0
  5 28  1  0  0  0
  5 29  1  0  0  0
  5 30  1  0  0  0
  6  1  1  0  0  0
  6 11  1  0  0  0
  7  6  1  0  0  0
  7 31  1  0  0  0
  7 32  1  0  0  0
  8  7  1  0  0  0
  8  9  1  0  0  0
  8 33  1  0  0  0
  8 34  1  0  0  0
  9 10  1  0  0  0
  9 35  1  0  0  0
 10 11  1  0  0  0
 10 14  1  0  0  0
 10 36  1  0  0  0
 11 12  1  0  0  0
 11 37  1  0  0  0
 12 38  1  0  0  0
 12 39  1  0  0  0
 13 12  1  0  0  0
 13 40  1  0  0  0
 13 41  1  0  0  0
 14 42  1  0  0  0
 14 43  1  0  0  0
 15  2  1  0  0  0
 16  3  1  0  0  0
 16 44  1  0  0  0
 17 18  2  0  0  0
 18 15  1  0  0  0
 18 45  1  0  0  0
 19  1  2  0  0  0
 20 17  1  0  0  0
 21 24  1  0  0  0
 21 46  1  0  0  0
 22 24  2  0  0  0
 23 24  2  0  0  0
 24 20  1  0  0  0
M  END
$$$$
