GCH
  CCTOOLS-0919241039

 76 79  0  0  1  0  0  0  0  0999 V2000
    0.5630   -0.9600   -6.7000 C   0  0  0  0  0
    0.3560   -2.3150   -7.1020 O   0  0  0  0  0
   -0.6900   -0.4390   -5.9950 C   0  0  0  0  0
   -0.4680    1.0110   -5.5630 C   0  0  0  0  0
    0.7210    1.0810   -4.6040 C   0  0  0  0  0
    1.9750    0.5620   -5.3110 C   0  0  0  0  0
    1.7540   -0.8880   -5.7420 C   0  0  0  0  0
    0.9430    2.5310   -4.1690 C   0  0  0  0  0
   -1.7230    1.5300   -4.8590 C   0  0  0  0  0
   -2.0080    0.6730   -3.6240 C   0  0  0  0  0
   -2.2140   -0.6830   -4.0220 O   0  0  0  0  0
   -0.8190    0.7480   -2.6650 C   0  0  0  0  0
    0.4480    0.2300   -3.3620 C   0  0  0  0  0
    1.6570    0.2570   -2.4340 C   0  0  0  0  0
    1.3800   -0.5090   -1.1300 C   0  0  0  0  0
    0.1370    0.0620   -0.4830 C   0  0  0  0  0
   -1.0600   -0.1320   -1.4540 C   0  0  0  0  0
   -2.2470    0.2610   -0.5670 C   0  0  0  0  0
   -1.8960   -0.3980    0.7940 C   0  0  0  0  0
   -0.3570   -0.5710    0.8120 C   0  0  0  0  0
    0.2430    0.1500    2.0190 C   0  0  0  0  0
    1.7670    0.0240    1.9830 C   0  0  0  0  0
   -0.2900   -0.4790    3.3080 C   0  0  0  0  0
    0.3100    0.2430    4.5150 C   0  0  0  0  0
   -0.2140   -0.3760    5.7840 C   0  0  0  0  0
    0.1800    0.1000    6.9810 N   0  0  0  0  0
   -0.3290   -0.5020    8.2150 C   0  0  0  0  0
   -0.9920   -1.3050    5.7290 O   0  0  0  0  0
    0.3010    1.5710   -0.2910 C   0  0  0  0  0
    1.1190   -1.8840   -1.4210 O   0  0  0  0  0
    0.2620    0.2090    9.4040 C   0  0  0  0  0
   -0.0650   -0.1750   10.6480 O   0  0  0  0  0
    1.0310    1.1260    9.2380 O   0  0  0  0  0
    0.7660   -0.3470   -7.5790 H   0  0  0  0  0
    1.1680   -2.6040   -7.5420 H   0  0  0  0  0
   -0.8930   -1.0530   -5.1170 H   0  0  0  0  0
   -1.5380   -0.4900   -6.6780 H   0  0  0  0  0
   -0.2640    1.6240   -6.4410 H   0  0  0  0  0
    2.8240    0.6130   -4.6290 H   0  0  0  0  0
    2.1770    1.1760   -6.1890 H   0  0  0  0  0
    1.5510   -1.5020   -4.8640 H   0  0  0  0  0
    2.6480   -1.2580   -6.2450 H   0  0  0  0  0
    1.1470    3.1460   -5.0450 H   0  0  0  0  0
    0.0500    2.9000   -3.6650 H   0  0  0  0  0
    1.7910    2.5790   -3.4860 H   0  0  0  0  0
   -2.5710    1.4770   -5.5410 H   0  0  0  0  0
   -1.5660    2.5650   -4.5540 H   0  0  0  0  0
   -2.9030    1.0440   -3.1230 H   0  0  0  0  0
   -2.9710   -0.6860   -4.6240 H   0  0  0  0  0
   -0.6680    1.7800   -2.3460 H   0  0  0  0  0
    0.2650   -0.7980   -3.6730 H   0  0  0  0  0
    2.5070   -0.1980   -2.9420 H   0  0  0  0  0
    1.9000    1.2920   -2.1950 H   0  0  0  0  0
    2.2380   -0.4280   -0.4630 H   0  0  0  0  0
   -1.1400   -1.1760   -1.7550 H   0  0  0  0  0
   -3.1760   -0.1450   -0.9650 H   0  0  0  0  0
   -2.3100    1.3440   -0.4670 H   0  0  0  0  0
   -2.3840   -1.3690    0.8750 H   0  0  0  0  0
   -2.2100    0.2480    1.6140 H   0  0  0  0  0
   -0.0970   -1.6300    0.8380 H   0  0  0  0  0
   -0.0350    1.2040    1.9880 H   0  0  0  0  0
    2.0450   -1.0290    2.0150 H   0  0  0  0  0
    2.1470    0.4730    1.0650 H   0  0  0  0  0
    2.1950    0.5390    2.8430 H   0  0  0  0  0
   -1.3760   -0.3890    3.3340 H   0  0  0  0  0
   -0.0110   -1.5320    3.3400 H   0  0  0  0  0
    1.3960    0.1530    4.4890 H   0  0  0  0  0
    0.0320    1.2970    4.4840 H   0  0  0  0  0
    0.8030    0.8430    7.0260 H   0  0  0  0  0
   -1.4150   -0.4120    8.2410 H   0  0  0  0  0
   -0.0510   -1.5550    8.2470 H   0  0  0  0  0
    0.5650    2.0320   -1.2430 H   0  0  0  0  0
   -0.6350    1.9960    0.0700 H   0  0  0  0  0
    1.0910    1.7610    0.4350 H   0  0  0  0  0
    1.9080   -2.2310   -1.8590 H   0  0  0  0  0
    0.3140    0.2810   11.4110 H   0  0  0  0  0
  1  2  1  0  0  0
  1  3  1  0  0  0
  1  7  1  0  0  0
  1 34  1  0  0  0
  2 35  1  0  0  0
  3  4  1  0  0  0
  3 36  1  0  0  0
  3 37  1  0  0  0
  4  5  1  0  0  0
  4  9  1  0  0  0
  4 38  1  0  0  0
  5  6  1  0  0  0
  5  8  1  0  0  0
  5 13  1  0  0  0
  6  7  1  0  0  0
  6 39  1  0  0  0
  6 40  1  0  0  0
  7 41  1  0  0  0
  7 42  1  0  0  0
  8 43  1  0  0  0
  8 44  1  0  0  0
  8 45  1  0  0  0
  9 10  1  0  0  0
  9 46  1  0  0  0
  9 47  1  0  0  0
 10 11  1  0  0  0
 10 12  1  0  0  0
 10 48  1  0  0  0
 11 49  1  0  0  0
 12 13  1  0  0  0
 12 17  1  0  0  0
 12 50  1  0  0  0
 13 14  1  0  0  0
 13 51  1  0  0  0
 14 15  1  0  0  0
 14 52  1  0  0  0
 14 53  1  0  0  0
 15 16  1  0  0  0
 15 30  1  0  0  0
 15 54  1  0  0  0
 16 17  1  0  0  0
 16 20  1  0  0  0
 16 29  1  0  0  0
 17 18  1  0  0  0
 17 55  1  0  0  0
 18 19  1  0  0  0
 18 56  1  0  0  0
 18 57  1  0  0  0
 19 20  1  0  0  0
 19 58  1  0  0  0
 19 59  1  0  0  0
 20 21  1  0  0  0
 20 60  1  0  0  0
 21 22  1  0  0  0
 21 23  1  0  0  0
 21 61  1  0  0  0
 22 62  1  0  0  0
 22 63  1  0  0  0
 22 64  1  0  0  0
 23 24  1  0  0  0
 23 65  1  0  0  0
 23 66  1  0  0  0
 24 25  1  0  0  0
 24 67  1  0  0  0
 24 68  1  0  0  0
 25 26  1  0  0  0
 25 28  2  0  0  0
 26 27  1  0  0  0
 26 69  1  0  0  0
 27 31  1  0  0  0
 27 70  1  0  0  0
 27 71  1  0  0  0
 29 72  1  0  0  0
 29 73  1  0  0  0
 29 74  1  0  0  0
 30 75  1  0  0  0
 31 32  1  0  0  0
 31 33  2  0  0  0
 32 76  1  0  0  0
M  END
$$$$
