GOQ
  CCTOOLS-0919241041

 36 39  0  0  0  0  0  0  0  0999 V2000
   -0.8580   -2.7360    0.0150 N   0  3  0  0  0
    5.4950   -1.5410    0.1190 C   0  0  0  0  0
    4.0670   -1.5690    0.0860 O   0  0  0  0  0
    3.4280   -0.3720    0.0450 C   0  0  0  0  0
    2.0220   -0.3210    0.0170 C   0  0  0  0  0
   -2.2140   -0.2190   -0.0630 C   0  0  0  0  0
   -2.8810    1.0030   -0.1010 C   0  0  0  0  0
   -2.1730    2.1950   -0.1140 C   0  0  0  0  0
   -0.7820    2.1910   -0.0900 C   0  0  0  0  0
   -1.4750    4.2820    0.2680 C   0  0  0  0  0
   -2.9750   -1.4770   -0.0510 C   0  0  0  0  0
    4.1530    0.8020    0.0380 C   0  0  0  0  0
    3.5110    2.0320   -0.0030 C   0  0  0  0  0
    2.1370    2.1070   -0.0360 C   0  0  0  0  0
    1.3770    0.9360   -0.0240 C   0  0  0  0  0
   -0.0880    0.9750   -0.0510 C   0  0  0  0  0
   -0.7980   -0.2440   -0.0380 C   0  0  0  0  0
   -0.0970   -1.4670    0.0020 C   0  0  0  0  0
    1.2530   -1.5050    0.0280 C   0  0  0  0  0
   -1.5590   -3.0170    0.9710 O   0  0  0  0  0
   -0.7870   -3.4990   -0.9320 O   0  5  0  0  0
   -0.3410    3.4800   -0.1110 O   0  0  0  0  0
   -2.6040    3.4920   -0.1480 O   0  0  0  0  0
   -2.8970   -2.2440   -0.9910 O   0  0  0  0  0
   -3.7600   -1.7790    1.0030 O   0  0  0  0  0
    5.8700   -1.0400   -0.7730 H   0  0  0  0  0
    5.8270   -1.0020    1.0060 H   0  0  0  0  0
    5.8780   -2.5620    0.1500 H   0  0  0  0  0
   -3.9600    1.0220   -0.1210 H   0  0  0  0  0
   -1.4920    4.4370    1.3470 H   0  0  0  0  0
   -1.4600    5.2390   -0.2550 H   0  0  0  0  0
    5.2320    0.7630    0.0640 H   0  0  0  0  0
    4.0960    2.9400   -0.0080 H   0  0  0  0  0
    1.6480    3.0690   -0.0670 H   0  0  0  0  0
    1.7540   -2.4610    0.0580 H   0  0  0  0  0
   -4.2410   -2.6170    0.9660 H   0  0  0  0  0
  1 20  2  0  0  0
  1 18  1  0  0  0
  2  3  1  0  0  0
  2 26  1  0  0  0
  2 27  1  0  0  0
  2 28  1  0  0  0
  3  4  1  0  0  0
  4 12  1  0  0  0
  5  4  2  0  0  0
  5 15  1  0  0  0
  6 17  2  0  0  0
  6  7  1  0  0  0
  7  8  2  0  0  0
  7 29  1  0  0  0
  8  9  1  0  0  0
  8 23  1  0  0  0
  9 22  1  0  0  0
 10 30  1  0  0  0
 10 31  1  0  0  0
 11  6  1  0  0  0
 12 13  2  0  0  0
 12 32  1  0  0  0
 13 33  1  0  0  0
 14 13  1  0  0  0
 14 34  1  0  0  0
 15 14  2  0  0  0
 16 15  1  0  0  0
 16  9  2  0  0  0
 17 16  1  0  0  0
 18 19  2  0  0  0
 18 17  1  0  0  0
 19  5  1  0  0  0
 19 35  1  0  0  0
 21  1  1  0  0  0
 22 10  1  0  0  0
 23 10  1  0  0  0
 24 11  2  0  0  0
 25 11  1  0  0  0
 25 36  1  0  0  0
M  CHG  1   1   1
M  CHG  1  21  -1
M  END
$$$$
