H8G
  CCTOOLS-0919241044

 51 54  0  0  1  0  0  0  0  0999 V2000
   -2.9890   -0.3240   -2.6490 C   0  0  0  0  0
   -4.5710   -2.7920   -0.8860 C   0  0  0  0  0
    0.3430    3.9070    0.1130 C   0  0  0  0  0
   -0.1760   -0.0480    1.5020 C   0  0  0  0  0
    3.4510   -2.5560    1.3630 C   0  0  0  0  0
    2.3290   -1.7740    1.6270 C   0  0  0  0  0
    4.3460   -2.3160    0.3270 C   0  0  0  0  0
    3.9330    0.4700   -1.9850 C   0  0  0  0  0
   -3.9360    0.3710   -1.6690 C   0  0  0  0  0
   -5.1100   -1.4590   -0.3610 C   0  0  0  0  0
    1.7230    1.5960   -1.1370 C   0  0  0  0  0
   -0.7870    2.3380    1.5670 C   0  0  0  0  0
   -3.2170   -0.2440    0.5760 C   0  0  0  0  0
    0.9530    0.2960    0.9080 C   0  0  0  0  0
    2.8730    0.6250   -1.1990 C   0  0  0  0  0
    2.0530   -0.6850    0.8320 C   0  0  0  0  0
    4.0960   -1.2220   -0.5010 C   0  0  0  0  0
    2.9610   -0.4560   -0.2240 C   0  0  0  0  0
   -1.3350    0.9060    1.6110 C   0  0  0  0  0
    1.1800    1.6530    0.2980 C   0  0  0  0  0
   -2.2540    0.6950    0.4900 N   0  0  0  0  0
    4.6760   -0.6280   -1.5800 N   0  0  0  0  0
   -0.0070    2.4980    0.3370 N   0  0  0  0  0
   -4.0630   -0.4380   -0.4550 N   0  0  0  0  0
   -3.3220   -0.9160    1.5840 O   0  0  0  0  0
   -2.0090   -0.4410   -2.1860 H   0  0  0  0  0
   -3.3880   -1.3050   -2.9060 H   0  0  0  0  0
   -2.8940    0.2780   -3.5530 H   0  0  0  0  0
   -5.3490   -3.5510   -0.8160 H   0  0  0  0  0
   -4.2670   -2.6770   -1.9260 H   0  0  0  0  0
   -3.7110   -3.0960   -0.2880 H   0  0  0  0  0
    0.8150    4.0140   -0.8630 H   0  0  0  0  0
   -0.5610    4.5160    0.1480 H   0  0  0  0  0
    1.0330    4.2380    0.8890 H   0  0  0  0  0
   -0.2710   -1.0400    1.9180 H   0  0  0  0  0
    3.6370   -3.4040    2.0050 H   0  0  0  0  0
    1.6770   -2.0220    2.4520 H   0  0  0  0  0
    5.2040   -2.9540    0.1690 H   0  0  0  0  0
    4.1810    1.1090   -2.8190 H   0  0  0  0  0
   -3.5370    1.3520   -1.4120 H   0  0  0  0  0
   -4.9160    0.4880   -2.1320 H   0  0  0  0  0
   -5.9690   -1.1540   -0.9590 H   0  0  0  0  0
   -5.4130   -1.5740    0.6790 H   0  0  0  0  0
    2.0660    2.5860   -1.4360 H   0  0  0  0  0
    0.9320    1.2660   -1.8120 H   0  0  0  0  0
   -1.6150    3.0470    1.5700 H   0  0  0  0  0
   -0.1510    2.5130    2.4340 H   0  0  0  0  0
   -1.8590    0.7420    2.5520 H   0  0  0  0  0
    1.9360    2.1540    0.9030 H   0  0  0  0  0
   -2.1700    1.2310   -0.3140 H   0  0  0  0  0
    5.4930   -0.9310   -2.0060 H   0  0  0  0  0
  1  9  1  0  0  0
  1 26  1  0  0  0
  1 27  1  0  0  0
  1 28  1  0  0  0
  2 29  1  0  0  0
  2 30  1  0  0  0
  2 31  1  0  0  0
  3 23  1  0  0  0
  3 32  1  0  0  0
  3 33  1  0  0  0
  3 34  1  0  0  0
  4 35  1  0  0  0
  5 36  1  0  0  0
  6  5  2  0  0  0
  6 37  1  0  0  0
  7  5  1  0  0  0
  7 38  1  0  0  0
  8 15  2  0  0  0
  8 22  1  0  0  0
  8 39  1  0  0  0
  9 24  1  0  0  0
  9 40  1  0  0  0
  9 41  1  0  0  0
 10  2  1  0  0  0
 10 42  1  0  0  0
 10 43  1  0  0  0
 11 15  1  0  0  0
 11 20  1  0  0  0
 11 44  1  0  0  0
 11 45  1  0  0  0
 12 19  1  0  0  0
 12 46  1  0  0  0
 12 47  1  0  0  0
 13 24  1  0  0  0
 13 25  2  0  0  0
 14 16  1  0  0  0
 14  4  2  0  0  0
 15 18  1  0  0  0
 16  6  1  0  0  0
 17  7  2  0  0  0
 18 17  1  0  0  0
 18 16  2  0  0  0
 19  4  1  0  0  0
 19 21  1  0  0  0
 19 48  1  0  0  0
 20 14  1  0  0  0
 20 49  1  0  0  0
 21 13  1  0  0  0
 21 50  1  0  0  0
 22 17  1  0  0  0
 22 51  1  0  0  0
 23 20  1  0  0  0
 23 12  1  0  0  0
 24 10  1  0  0  0
M  END
$$$$
