HAI
  CCTOOLS-0919241045

 21 21  0  0  0  0  0  0  0  0999 V2000
   -0.9610    0.0000    0.3460 C   0  0  0  0  0
   -0.2660   -1.2490   -0.2000 C   0  0  0  0  0
    1.2000   -1.2490    0.2370 C   0  0  0  0  0
    1.8950    0.0000   -0.3090 C   0  0  0  0  0
    1.2000    1.2490    0.2370 C   0  0  0  0  0
   -0.2660    1.2490   -0.2000 C   0  0  0  0  0
   -2.3690    0.0000   -0.0730 N   0  3  0  0  0
   -0.9060    0.0000    1.4350 H   0  0  0  0  0
   -0.7610   -2.1390    0.1890 H   0  0  0  0  0
   -0.3210   -1.2490   -1.2880 H   0  0  0  0  0
    1.2550   -1.2490    1.3260 H   0  0  0  0  0
    1.6950   -2.1390   -0.1520 H   0  0  0  0  0
    2.9390    0.0000    0.0020 H   0  0  0  0  0
    1.8400    0.0000   -1.3970 H   0  0  0  0  0
    1.2550    1.2490    1.3260 H   0  0  0  0  0
    1.6950    2.1390   -0.1520 H   0  0  0  0  0
   -0.3210    1.2490   -1.2880 H   0  0  0  0  0
   -0.7610    2.1390    0.1890 H   0  0  0  0  0
   -2.8270   -0.8240    0.2870 H   0  0  0  0  0
   -2.4200    0.0000   -1.0810 H   0  0  0  0  0
   -2.8270    0.8240    0.2870 H   0  0  0  0  0
  1  2  1  0  0  0
  1  6  1  0  0  0
  1  7  1  0  0  0
  1  8  1  0  0  0
  2  3  1  0  0  0
  2  9  1  0  0  0
  2 10  1  0  0  0
  3  4  1  0  0  0
  3 11  1  0  0  0
  3 12  1  0  0  0
  4  5  1  0  0  0
  4 13  1  0  0  0
  4 14  1  0  0  0
  5  6  1  0  0  0
  5 15  1  0  0  0
  5 16  1  0  0  0
  6 17  1  0  0  0
  6 18  1  0  0  0
  7 19  1  0  0  0
  7 20  1  0  0  0
  7 21  1  0  0  0
M  CHG  1   7   1
M  END
$$$$
