HZA
  CCTOOLS-0919241030

 68 67  0  0  0  0  0  0  0  0999 V2000
   11.7790    1.6230   -0.2750 C   0  0  0  0  0
   10.8950    0.9030   -1.2960 C   0  0  0  0  0
    9.1490   -0.7270   -1.4830 C   0  0  0  0  0
   10.0210   -0.0000   -0.6160 O   0  0  0  0  0
    8.2640   -1.6580   -0.6510 C   0  0  0  0  0
    7.4040   -0.8790    0.1830 O   0  0  0  0  0
    6.5320   -1.6560    1.0060 C   0  0  0  0  0
    5.6630   -0.7230    1.8520 C   0  0  0  0  0
    4.8030    0.0330    0.9970 O   0  0  0  0  0
    3.9450    0.9410    1.6910 C   0  0  0  0  0
    3.0750    1.6920    0.6820 C   0  0  0  0  0
    2.2000    0.7710    0.0280 O   0  0  0  0  0
    1.3390    1.3730   -0.9400 C   0  0  0  0  0
    0.4520    0.2990   -1.5730 C   0  0  0  0  0
   -0.4190   -0.2460   -0.5800 O   0  0  0  0  0
   -1.2940   -1.2640   -1.0690 C   0  0  0  0  0
   -2.1750   -1.7720    0.0740 C   0  0  0  0  0
   -3.0320   -0.7190    0.5190 O   0  0  0  0  0
   -3.9010   -1.0900    1.5910 C   0  0  0  0  0
   -4.7670    0.1080    1.9840 C   0  0  0  0  0
   -5.6310    0.4480    0.8970 O   0  0  0  0  0
   -6.4870    1.5610    1.1620 C   0  0  0  0  0
   -7.3620    1.8340   -0.0630 C   0  0  0  0  0
   -8.2380    0.7260   -0.2790 O   0  0  0  0  0
   -9.1040    0.8800   -1.4060 C   0  0  0  0  0
   -9.9920   -0.3590   -1.5400 C   0  0  0  0  0
  -10.8580   -0.4490   -0.4080 O   0  0  0  0  0
  -11.7340   -1.5770   -0.4350 C   0  0  0  0  0
   12.4460    2.3120   -0.7940 H   0  0  0  0  0
   11.1510    2.1800    0.4210 H   0  0  0  0  0
   12.3700    0.8910    0.2750 H   0  0  0  0  0
   10.3040    1.6360   -1.8460 H   0  0  0  0  0
   11.5230    0.3470   -1.9920 H   0  0  0  0  0
    8.5210   -0.0290   -2.0360 H   0  0  0  0  0
    9.7400   -1.3180   -2.1820 H   0  0  0  0  0
    7.6610   -2.2770   -1.3160 H   0  0  0  0  0
    8.8910   -2.2980   -0.0310 H   0  0  0  0  0
    5.8930   -2.2740    0.3750 H   0  0  0  0  0
    7.1230   -2.2950    1.6610 H   0  0  0  0  0
    5.0610   -1.3140    2.5420 H   0  0  0  0  0
    6.3020   -0.0440    2.4170 H   0  0  0  0  0
    3.3070    0.3840    2.3780 H   0  0  0  0  0
    4.5490    1.6540    2.2520 H   0  0  0  0  0
    2.4840    2.4470    1.2020 H   0  0  0  0  0
    3.7120    2.1760   -0.0580 H   0  0  0  0  0
    0.7120    2.1210   -0.4530 H   0  0  0  0  0
    1.9400    1.8510   -1.7140 H   0  0  0  0  0
   -0.1410    0.7430   -2.3720 H   0  0  0  0  0
    1.0780   -0.4940   -1.9820 H   0  0  0  0  0
   -1.9240   -0.8530   -1.8580 H   0  0  0  0  0
   -0.7040   -2.0890   -1.4680 H   0  0  0  0  0
   -2.7800   -2.6080   -0.2780 H   0  0  0  0  0
   -1.5450   -2.1010    0.9000 H   0  0  0  0  0
   -4.5420   -1.9120    1.2710 H   0  0  0  0  0
   -3.3060   -1.4060    2.4480 H   0  0  0  0  0
   -5.3660   -0.1480    2.8580 H   0  0  0  0  0
   -4.1270    0.9580    2.2190 H   0  0  0  0  0
   -7.1220    1.3350    2.0190 H   0  0  0  0  0
   -5.8820    2.4410    1.3800 H   0  0  0  0  0
   -7.9510    2.7360    0.1050 H   0  0  0  0  0
   -6.7280    1.9720   -0.9390 H   0  0  0  0  0
   -9.7290    1.7620   -1.2660 H   0  0  0  0  0
   -8.5060    0.9980   -2.3100 H   0  0  0  0  0
  -10.5880   -0.2810   -2.4490 H   0  0  0  0  0
   -9.3660   -1.2500   -1.5910 H   0  0  0  0  0
  -12.3590   -1.5740    0.4590 H   0  0  0  0  0
  -12.3670   -1.5250   -1.3210 H   0  0  0  0  0
  -11.1460   -2.4940   -0.4630 H   0  0  0  0  0
  1  2  1  0  0  0
  1 29  1  0  0  0
  1 30  1  0  0  0
  1 31  1  0  0  0
  2 32  1  0  0  0
  2 33  1  0  0  0
  3 34  1  0  0  0
  3 35  1  0  0  0
  4  2  1  0  0  0
  4  3  1  0  0  0
  5  3  1  0  0  0
  5 36  1  0  0  0
  5 37  1  0  0  0
  6  5  1  0  0  0
  6  7  1  0  0  0
  7 38  1  0  0  0
  7 39  1  0  0  0
  8  7  1  0  0  0
  8  9  1  0  0  0
  8 40  1  0  0  0
  8 41  1  0  0  0
  9 10  1  0  0  0
 10 11  1  0  0  0
 10 42  1  0  0  0
 10 43  1  0  0  0
 11 44  1  0  0  0
 11 45  1  0  0  0
 12 11  1  0  0  0
 12 13  1  0  0  0
 13 14  1  0  0  0
 13 46  1  0  0  0
 13 47  1  0  0  0
 14 48  1  0  0  0
 14 49  1  0  0  0
 15 14  1  0  0  0
 16 15  1  0  0  0
 16 50  1  0  0  0
 16 51  1  0  0  0
 17 16  1  0  0  0
 17 52  1  0  0  0
 17 53  1  0  0  0
 18 17  1  0  0  0
 19 18  1  0  0  0
 19 20  1  0  0  0
 19 54  1  0  0  0
 19 55  1  0  0  0
 20 21  1  0  0  0
 20 56  1  0  0  0
 20 57  1  0  0  0
 22 21  1  0  0  0
 22 23  1  0  0  0
 22 58  1  0  0  0
 22 59  1  0  0  0
 23 60  1  0  0  0
 23 61  1  0  0  0
 24 23  1  0  0  0
 25 24  1  0  0  0
 25 62  1  0  0  0
 25 63  1  0  0  0
 26 25  1  0  0  0
 26 64  1  0  0  0
 26 65  1  0  0  0
 27 26  1  0  0  0
 28 27  1  0  0  0
 28 66  1  0  0  0
 28 67  1  0  0  0
 28 68  1  0  0  0
M  END
$$$$
