ITF
  CCTOOLS-0919241034

 21 21  0  0  0  0  0  0  0  0999 V2000
   -2.7060   -0.1420    1.1040 C   0  0  0  0  0
   -2.0510    0.3880    0.0540 C   0  0  0  0  0
   -3.9250   -0.5040   -0.6390 C   0  0  0  0  0
   -0.7220    1.0980    0.0890 C   0  0  0  0  0
    0.4080    0.0690    0.0150 C   0  0  0  0  0
    3.0920   -0.4610   -0.0400 C   0  0  0  0  0
   -2.8240    0.1590   -1.0520 N   0  0  0  0  0
   -3.8450   -0.6860    0.6500 N   0  0  0  0  0
    2.6060   -1.6700   -0.1140 N   0  0  0  0  0
    4.4540   -0.2670   -0.0370 N   0  0  0  0  0
    2.0040    0.9210    0.0580 S   0  0  0  0  0
   -2.3710   -0.1350    2.1300 H   0  0  0  0  0
   -4.7360   -0.8330   -1.2720 H   0  0  0  0  0
   -0.6500    1.7780   -0.7590 H   0  0  0  0  0
   -0.6370    1.6640    1.0170 H   0  0  0  0  0
    0.3360   -0.6110    0.8630 H   0  0  0  0  0
    0.3230   -0.4970   -0.9130 H   0  0  0  0  0
   -2.6210    0.4280   -1.9620 H   0  0  0  0  0
    1.6460   -1.8070   -0.1160 H   0  0  0  0  0
    4.8150    0.6320    0.0180 H   0  0  0  0  0
    5.0530   -1.0280   -0.0910 H   0  0  0  0  0
  1 12  1  0  0  0
  2  4  1  0  0  0
  2  1  2  0  0  0
  3  7  1  0  0  0
  3  8  2  0  0  0
  3 13  1  0  0  0
  4  5  1  0  0  0
  4 14  1  0  0  0
  4 15  1  0  0  0
  5 11  1  0  0  0
  5 16  1  0  0  0
  5 17  1  0  0  0
  6 10  1  0  0  0
  6 11  1  0  0  0
  7  2  1  0  0  0
  7 18  1  0  0  0
  8  1  1  0  0  0
  9  6  2  0  0  0
  9 19  1  0  0  0
 10 20  1  0  0  0
 10 21  1  0  0  0
M  END
$$$$
