IX8
  CCTOOLS-0919241035

 60 63  0  0  1  0  0  0  0  0999 V2000
    3.0940   -0.3270    1.2170 C   0  0  0  0  0
    4.9820    1.2810    0.9580 C   0  0  0  0  0
    6.1680   -0.3500   -0.9460 C   0  0  0  0  0
    4.9800   -0.7390   -0.3610 C   0  0  0  0  0
    8.0640    1.2590   -1.2180 C   0  0  0  0  0
    9.1370    1.4110   -0.1380 C   0  0  0  0  0
   -6.0910    2.6620   -0.7180 C   0  0  0  0  0
   -4.3360   -1.6010   -2.5570 C   0  0  0  0  0
   -4.2170   -1.7380   -1.0380 C   0  0  0  0  0
   -2.8990   -1.2670   -0.6060 N   0  0  0  0  0
   -1.8420   -2.1030   -0.6350 C   0  0  0  0  0
   -1.9830   -3.2480   -1.0190 O   0  0  0  0  0
   -0.5140   -1.6280   -0.2000 C   0  0  0  0  0
    0.4880   -1.3270   -1.1520 C   0  0  0  0  0
    1.6640   -0.9060   -0.7550 N   0  0  0  0  0
    1.9420   -0.7520    0.5450 C   0  0  0  0  0
    1.0050   -1.0310    1.5070 N   0  0  0  0  0
   -0.2300   -1.4710    1.1430 C   0  0  0  0  0
   -1.2710   -1.7820    2.1870 C   0  0  0  0  0
    1.5810   -0.7780    2.7570 N   0  0  0  0  0
    2.8120   -0.3630    2.5880 C   0  0  0  0  0
    4.3750    0.0790    0.5930 C   0  0  0  0  0
    6.1720    1.6560    0.3700 C   0  0  0  0  0
    6.7640    0.8430   -0.5800 C   0  0  0  0  0
    7.8740    2.5950   -1.9400 C   0  0  0  0  0
   -5.3050   -0.9000   -0.3630 C   0  0  0  0  0
   -5.2170    0.4510   -0.8220 O   0  0  0  0  0
   -6.1190    1.3340   -0.3160 C   0  0  0  0  0
   -7.0080    3.5570   -0.2020 C   0  0  0  0  0
   -7.9530    3.1310    0.7140 C   0  0  0  0  0
   -7.9820    1.8080    1.1150 C   0  0  0  0  0
   -7.0670    0.9090    0.6020 C   0  0  0  0  0
    4.5180    1.9190    1.6960 H   0  0  0  0  0
    6.6370   -0.9830   -1.6850 H   0  0  0  0  0
    4.5190   -1.6740   -0.6420 H   0  0  0  0  0
    8.3760    0.5000   -1.9360 H   0  0  0  0  0
    8.8260    2.1700    0.5790 H   0  0  0  0  0
    9.2730    0.4590    0.3750 H   0  0  0  0  0
   10.0780    1.7120   -0.6000 H   0  0  0  0  0
   -5.3510    2.9960   -1.4290 H   0  0  0  0  0
   -4.2140   -0.5540   -2.8380 H   0  0  0  0  0
   -3.5610   -2.1980   -3.0370 H   0  0  0  0  0
   -5.3170   -1.9510   -2.8780 H   0  0  0  0  0
   -4.3390   -2.7840   -0.7570 H   0  0  0  0  0
   -2.7870   -0.3540   -0.3000 H   0  0  0  0  0
    0.2850   -1.4430   -2.2060 H   0  0  0  0  0
   -2.1530   -2.2060    1.7070 H   0  0  0  0  0
   -0.8670   -2.4990    2.9020 H   0  0  0  0  0
   -1.5470   -0.8650    2.7090 H   0  0  0  0  0
    3.4980   -0.0920    3.3770 H   0  0  0  0  0
    6.6430    2.5860    0.6520 H   0  0  0  0  0
    7.5620    3.3540   -1.2220 H   0  0  0  0  0
    8.8140    2.8960   -2.4010 H   0  0  0  0  0
    7.1090    2.4870   -2.7090 H   0  0  0  0  0
   -6.2850   -1.3060   -0.6140 H   0  0  0  0  0
   -5.1660   -0.9260    0.7170 H   0  0  0  0  0
   -6.9870    4.5910   -0.5140 H   0  0  0  0  0
   -8.6680    3.8320    1.1160 H   0  0  0  0  0
   -8.7210    1.4780    1.8300 H   0  0  0  0  0
   -7.0910   -0.1240    0.9160 H   0  0  0  0  0
  1 16  2  0  0  0
  1 21  1  0  0  0
  2 22  1  0  0  0
  2 33  1  0  0  0
  3  4  1  0  0  0
  3 34  1  0  0  0
  4 22  2  0  0  0
  4 35  1  0  0  0
  5 24  1  0  0  0
  5 36  1  0  0  0
  6  5  1  0  0  0
  6 37  1  0  0  0
  6 38  1  0  0  0
  6 39  1  0  0  0
  7 28  2  0  0  0
  7 29  1  0  0  0
  7 40  1  0  0  0
  8  9  1  0  0  0
  8 41  1  0  0  0
  8 42  1  0  0  0
  8 43  1  0  0  0
  9 26  1  0  0  0
  9 44  1  0  0  0
 10  9  1  0  0  0
 10 45  1  0  0  0
 11 10  1  0  0  0
 12 11  2  0  0  0
 13 11  1  0  0  0
 13 18  2  0  0  0
 14 13  1  0  0  0
 14 46  1  0  0  0
 15 14  2  0  0  0
 15 16  1  0  0  0
 16 17  1  0  0  0
 17 18  1  0  0  0
 17 20  1  0  0  0
 18 19  1  0  0  0
 19 47  1  0  0  0
 19 48  1  0  0  0
 19 49  1  0  0  0
 21 20  2  0  0  0
 21 50  1  0  0  0
 22  1  1  0  0  0
 23  2  2  0  0  0
 23 51  1  0  0  0
 24  3  2  0  0  0
 24 23  1  0  0  0
 25  5  1  0  0  0
 25 52  1  0  0  0
 25 53  1  0  0  0
 25 54  1  0  0  0
 26 27  1  0  0  0
 26 55  1  0  0  0
 26 56  1  0  0  0
 27 28  1  0  0  0
 28 32  1  0  0  0
 29 30  2  0  0  0
 29 57  1  0  0  0
 30 31  1  0  0  0
 30 58  1  0  0  0
 31 59  1  0  0  0
 32 31  2  0  0  0
 32 60  1  0  0  0
M  END
$$$$
