J3O
  CCTOOLS-1115241517

 46 47  0  0  0  0  0  0  0  0999 V2000
    3.2400   -2.9340   -0.2850 C   0  0  0  0  0
   -0.8200    2.1420   -0.1270 C   0  0  0  0  0
   -2.5830   -0.1990   -0.4140 C   0  0  0  0  0
   -5.2260   -0.0300    0.4180 C   0  0  0  0  0
   -4.4540    1.1110    0.3720 C   0  0  0  0  0
    1.3210    3.0620   -0.7080 C   0  0  0  0  0
    3.3630   -0.5590   -0.1310 C   0  0  0  0  0
    3.8750    0.7210    0.4770 C   0  0  0  0  0
    1.9420    1.9370   -0.1770 C   0  0  0  0  0
    1.1810    0.9140    0.3780 C   0  0  0  0  0
   -0.1910    1.0120    0.4050 C   0  0  0  0  0
    4.1510   -3.3490   -1.4420 C   0  0  0  0  0
   -2.2910    2.2540   -0.0950 C   0  0  0  0  0
   -3.1230    1.0350   -0.0450 C   0  0  0  0  0
   -3.3650   -1.3340   -0.3650 C   0  0  0  0  0
   -4.6850   -1.2510    0.0500 C   0  0  0  0  0
   -0.0510    3.1680   -0.6850 C   0  0  0  0  0
    3.1670   -4.0690    0.7390 C   0  0  0  0  0
    3.4940    0.7700    1.9580 C   0  0  0  0  0
    5.3980    0.7760    0.3400 C   0  0  0  0  0
    3.7750   -1.7430    0.3490 O   0  0  0  0  0
    2.5810   -0.5200   -1.0520 O   0  0  0  0  0
    3.2960    1.8360   -0.2020 O   0  0  0  0  0
   -2.8180    3.3500   -0.1110 O   0  0  0  0  0
   -5.6630   -2.6840    0.1090 CL  0  0  0  0  0
    2.2410   -2.7250   -0.6670 H   0  0  0  0  0
   -1.5560   -0.2640   -0.7420 H   0  0  0  0  0
   -6.2550    0.0270    0.7400 H   0  0  0  0  0
   -4.8780    2.0620    0.6590 H   0  0  0  0  0
    1.9160    3.8540   -1.1380 H   0  0  0  0  0
    1.6680    0.0420    0.7880 H   0  0  0  0  0
   -0.7820    0.2170    0.8360 H   0  0  0  0  0
    5.1510   -3.5590   -1.0600 H   0  0  0  0  0
    3.7500   -4.2440   -1.9180 H   0  0  0  0  0
    4.2030   -2.5410   -2.1710 H   0  0  0  0  0
   -2.9480   -2.2880   -0.6500 H   0  0  0  0  0
   -0.5330    4.0420   -1.0970 H   0  0  0  0  0
    4.1660   -4.2780    1.1210 H   0  0  0  0  0
    2.5180   -3.7730    1.5630 H   0  0  0  0  0
    2.7650   -4.9630    0.2630 H   0  0  0  0  0
    3.9690   -0.0580    2.4830 H   0  0  0  0  0
    3.8300    1.7140    2.3880 H   0  0  0  0  0
    2.4120    0.6900    2.0570 H   0  0  0  0  0
    5.6670    0.8280   -0.7150 H   0  0  0  0  0
    5.7780    1.6590    0.8560 H   0  0  0  0  0
    5.8360   -0.1190    0.7830 H   0  0  0  0  0
  1 18  1  0  0  0
  1 26  1  0  0  0
  2 17  1  0  0  0
  3 15  2  0  0  0
  3 14  1  0  0  0
  3 27  1  0  0  0
  4 28  1  0  0  0
  5  4  1  0  0  0
  5 29  1  0  0  0
  6 30  1  0  0  0
  7 21  1  0  0  0
  7 22  2  0  0  0
  8  7  1  0  0  0
  9  6  1  0  0  0
  9 23  1  0  0  0
 10  9  2  0  0  0
 10 31  1  0  0  0
 11  2  2  0  0  0
 11 10  1  0  0  0
 11 32  1  0  0  0
 12  1  1  0  0  0
 12 33  1  0  0  0
 12 34  1  0  0  0
 12 35  1  0  0  0
 13 14  1  0  0  0
 13  2  1  0  0  0
 14  5  2  0  0  0
 15 16  1  0  0  0
 15 36  1  0  0  0
 16  4  2  0  0  0
 16 25  1  0  0  0
 17  6  2  0  0  0
 17 37  1  0  0  0
 18 38  1  0  0  0
 18 39  1  0  0  0
 18 40  1  0  0  0
 19  8  1  0  0  0
 19 41  1  0  0  0
 19 42  1  0  0  0
 19 43  1  0  0  0
 20  8  1  0  0  0
 20 44  1  0  0  0
 20 45  1  0  0  0
 20 46  1  0  0  0
 21  1  1  0  0  0
 23  8  1  0  0  0
 24 13  2  0  0  0
M  END
$$$$
