J40
  CCTOOLS-0919241036

125125  0  0  1  0  0  0  0  0999 V2000
   -0.6260   -3.1030   -3.1900 O   0  0  0  0  0
   -0.1200   -2.7300   -1.8500 P   0  0  0  0  0
    0.8320   -1.4370   -1.9770 O   0  0  0  0  0
    0.7200   -3.9570   -1.2330 O   0  0  0  0  0
   -1.2870   -4.2350    1.2540 O   0  0  0  0  0
   -1.3620   -2.3890   -0.8830 O   0  0  0  0  0
   -2.4400   -3.2980   -0.6520 C   0  0  0  0  0
   -2.5150   -3.6320    0.8390 C   0  0  0  0  0
   -3.7540   -2.6530   -1.0970 C   0  0  0  0  0
   -3.9730   -1.4550   -0.3500 O   0  0  0  0  0
   -4.9090   -3.6260   -0.8500 C   0  0  0  0  0
   -6.1360   -3.0240   -1.2650 O   0  0  0  0  0
   -4.9840   -3.9610    0.6410 C   0  0  0  0  0
   -6.0620   -4.8690    0.8730 O   0  0  0  0  0
   -7.3040   -4.5290    1.8390 P   0  0  0  0  0
   -8.2550   -5.8210    1.9660 O   0  0  0  0  0
   -6.7970   -4.1560    3.1790 O   0  0  0  0  0
   -8.1440   -3.3020    1.2230 O   0  0  0  0  0
   -3.6690   -4.6050    1.0860 C   0  0  0  0  0
   -3.7390   -4.9180    2.4790 O   0  0  0  0  0
    1.9630   -1.3860   -2.8480 C   0  0  0  0  0
    2.6420   -0.0210   -2.7230 C   0  0  0  0  0
    1.6180    1.0840   -2.9880 C   0  0  0  0  0
    3.1810    0.1310   -1.3830 O   0  0  0  0  0
    4.4410   -0.2860   -1.1830 C   0  0  0  0  0
    5.0730   -0.7620   -2.0960 O   0  0  0  0  0
    0.4840    0.9170   -2.0970 O   0  0  0  0  0
   -0.5110    1.8120   -2.2030 C   0  0  0  0  0
   -0.4370    2.7050   -3.0130 O   0  0  0  0  0
    5.0680   -0.1610    0.1820 C   0  0  0  0  0
    6.4970   -0.7050    0.1390 C   0  0  0  0  0
    7.1340   -0.5770    1.5240 C   0  0  0  0  0
    8.5420   -1.1140    1.4820 C   0  0  0  0  0
    9.5410   -0.3620    1.8720 C   0  0  0  0  0
   10.9490   -0.8980    1.8290 C   0  0  0  0  0
   11.8170    0.0340    1.0230 C   0  0  0  0  0
   12.9110    0.5270    1.5480 C   0  0  0  0  0
   13.7790    1.4590    0.7430 C   0  0  0  0  0
   13.9810    2.7430    1.5050 C   0  0  0  0  0
   15.1910    3.2010    1.7090 C   0  0  0  0  0
   16.3690    2.5400    1.0410 C   0  0  0  0  0
   17.1650    3.5760    0.2890 C   0  0  0  0  0
   -1.7210    1.7030   -1.3100 C   0  0  0  0  0
   -2.6970    2.8360   -1.6320 C   0  0  0  0  0
   -3.9240    2.7250   -0.7260 C   0  0  0  0  0
   -4.9000    3.8590   -1.0490 C   0  0  0  0  0
   -6.1280    3.7480   -0.1430 C   0  0  0  0  0
   -7.1040    4.8820   -0.4650 C   0  0  0  0  0
   -8.3320    4.7710    0.4410 C   0  0  0  0  0
   -9.3070    5.9040    0.1190 C   0  0  0  0  0
  -10.5350    5.7930    1.0250 C   0  0  0  0  0
  -11.5110    6.9270    0.7030 C   0  0  0  0  0
   18.4450    3.7190    0.5280 C   0  0  0  0  0
   19.1210    2.8480    1.5560 C   0  0  0  0  0
  -12.7390    6.8160    1.6090 C   0  0  0  0  0
  -13.7140    7.9500    1.2860 C   0  0  0  0  0
  -14.9420    7.8390    2.1920 C   0  0  0  0  0
    1.0830   -3.7820   -0.3540 H   0  0  0  0  0
   -1.2630   -4.4730    2.1910 H   0  0  0  0  0
   -2.2730   -4.2130   -1.2220 H   0  0  0  0  0
   -2.6820   -2.7180    1.4080 H   0  0  0  0  0
   -3.7010   -2.4150   -2.1590 H   0  0  0  0  0
   -4.7910   -0.9920   -0.5810 H   0  0  0  0  0
   -4.7420   -4.5410   -1.4190 H   0  0  0  0  0
   -6.1600   -2.7850   -2.2020 H   0  0  0  0  0
   -5.1510   -3.0460    1.2110 H   0  0  0  0  0
   -9.0260   -5.6880    2.5350 H   0  0  0  0  0
   -8.5070   -3.4770    0.3430 H   0  0  0  0  0
   -3.5020   -5.5200    0.5170 H   0  0  0  0  0
   -2.9380   -5.3300    2.8300 H   0  0  0  0  0
    2.6700   -2.1700   -2.5720 H   0  0  0  0  0
    1.6370   -1.5370   -3.8770 H   0  0  0  0  0
    3.4510    0.0510   -3.4500 H   0  0  0  0  0
    2.0780    2.0560   -2.8130 H   0  0  0  0  0
    1.2780    1.0240   -4.0230 H   0  0  0  0  0
    5.0880    0.8880    0.4780 H   0  0  0  0  0
    4.4840   -0.7310    0.9040 H   0  0  0  0  0
    6.4780   -1.7540   -0.1570 H   0  0  0  0  0
    7.0820   -0.1350   -0.5830 H   0  0  0  0  0
    7.1530    0.4710    1.8200 H   0  0  0  0  0
    6.5500   -1.1480    2.2460 H   0  0  0  0  0
    8.7270   -2.1180    1.1290 H   0  0  0  0  0
    9.3560    0.6420    2.2240 H   0  0  0  0  0
   11.3400   -0.9730    2.8440 H   0  0  0  0  0
   10.9480   -1.8850    1.3660 H   0  0  0  0  0
   11.5370    0.2950    0.0140 H   0  0  0  0  0
   13.1910    0.2660    2.5580 H   0  0  0  0  0
   14.7460    0.9890    0.5610 H   0  0  0  0  0
   13.2950    1.6740   -0.2100 H   0  0  0  0  0
   13.1270    3.2860    1.8830 H   0  0  0  0  0
   15.3440    4.0520    2.3560 H   0  0  0  0  0
   17.0010    2.0740    1.7960 H   0  0  0  0  0
   16.0130    1.7800    0.3450 H   0  0  0  0  0
   16.6800    4.2000   -0.4480 H   0  0  0  0  0
   -2.2100    0.7430   -1.4770 H   0  0  0  0  0
   -1.4110    1.7760   -0.2680 H   0  0  0  0  0
   -2.2070    3.7960   -1.4650 H   0  0  0  0  0
   -3.0060    2.7640   -2.6750 H   0  0  0  0  0
   -4.4140    1.7660   -0.8940 H   0  0  0  0  0
   -3.6140    2.7980    0.3160 H   0  0  0  0  0
   -4.4100    4.8180   -0.8810 H   0  0  0  0  0
   -5.2100    3.7860   -2.0910 H   0  0  0  0  0
   -6.6170    2.7890   -0.3100 H   0  0  0  0  0
   -5.8180    3.8210    0.9000 H   0  0  0  0  0
   -6.6140    5.8410   -0.2970 H   0  0  0  0  0
   -7.4130    4.8090   -1.5070 H   0  0  0  0  0
   -8.8210    3.8110    0.2740 H   0  0  0  0  0
   -8.0220    4.8440    1.4840 H   0  0  0  0  0
   -8.8180    6.8640    0.2860 H   0  0  0  0  0
   -9.6170    5.8320   -0.9240 H   0  0  0  0  0
  -11.0250    4.8340    0.8580 H   0  0  0  0  0
  -10.2250    5.8660    2.0670 H   0  0  0  0  0
  -11.0210    7.8860    0.8700 H   0  0  0  0  0
  -11.8210    6.8540   -0.3400 H   0  0  0  0  0
   19.0160    4.4610   -0.0110 H   0  0  0  0  0
   20.1780    3.1110    1.6160 H   0  0  0  0  0
   18.6530    3.0020    2.5270 H   0  0  0  0  0
   19.0230    1.8020    1.2660 H   0  0  0  0  0
  -13.2280    5.8570    1.4410 H   0  0  0  0  0
  -12.4290    6.8890    2.6510 H   0  0  0  0  0
  -13.2250    8.9090    1.4540 H   0  0  0  0  0
  -14.0240    7.8770    0.2440 H   0  0  0  0  0
  -14.6320    7.9120    3.2350 H   0  0  0  0  0
  -15.6370    8.6460    1.9630 H   0  0  0  0  0
  -15.4320    6.8790    2.0250 H   0  0  0  0  0
  1  2  2  0  0  0
  2  3  1  0  0  0
  2  4  1  0  0  0
  4 58  1  0  0  0
  5 59  1  0  0  0
  6  2  1  0  0  0
  7  6  1  0  0  0
  7  8  1  0  0  0
  7 60  1  0  0  0
  8  5  1  0  0  0
  8 61  1  0  0  0
  9  7  1  0  0  0
  9 10  1  0  0  0
  9 62  1  0  0  0
 10 63  1  0  0  0
 11  9  1  0  0  0
 11 13  1  0  0  0
 11 64  1  0  0  0
 12 11  1  0  0  0
 12 65  1  0  0  0
 13 19  1  0  0  0
 13 66  1  0  0  0
 14 13  1  0  0  0
 14 15  1  0  0  0
 15 16  1  0  0  0
 15 18  1  0  0  0
 16 67  1  0  0  0
 17 15  2  0  0  0
 18 68  1  0  0  0
 19  8  1  0  0  0
 19 20  1  0  0  0
 19 69  1  0  0  0
 20 70  1  0  0  0
 21  3  1  0  0  0
 21 22  1  0  0  0
 21 71  1  0  0  0
 21 72  1  0  0  0
 22 23  1  0  0  0
 22 24  1  0  0  0
 22 73  1  0  0  0
 23 27  1  0  0  0
 23 74  1  0  0  0
 23 75  1  0  0  0
 25 24  1  0  0  0
 25 30  1  0  0  0
 26 25  2  0  0  0
 27 28  1  0  0  0
 28 29  2  0  0  0
 28 43  1  0  0  0
 30 76  1  0  0  0
 30 77  1  0  0  0
 31 30  1  0  0  0
 31 32  1  0  0  0
 31 78  1  0  0  0
 31 79  1  0  0  0
 32 80  1  0  0  0
 32 81  1  0  0  0
 33 32  1  0  0  0
 33 82  1  0  0  0
 34 33  2  0  0  0
 34 83  1  0  0  0
 35 34  1  0  0  0
 35 36  1  0  0  0
 35 84  1  0  0  0
 35 85  1  0  0  0
 36 86  1  0  0  0
 37 36  2  0  0  0
 37 38  1  0  0  0
 37 87  1  0  0  0
 38 88  1  0  0  0
 38 89  1  0  0  0
 39 38  1  0  0  0
 39 90  1  0  0  0
 40 39  2  0  0  0
 40 91  1  0  0  0
 41 42  1  0  0  0
 41 40  1  0  0  0
 41 92  1  0  0  0
 41 93  1  0  0  0
 42 94  1  0  0  0
 43 44  1  0  0  0
 43 95  1  0  0  0
 43 96  1  0  0  0
 44 45  1  0  0  0
 44 97  1  0  0  0
 44 98  1  0  0  0
 45 46  1  0  0  0
 45 99  1  0  0  0
 45100  1  0  0  0
 46 47  1  0  0  0
 46101  1  0  0  0
 46102  1  0  0  0
 47 48  1  0  0  0
 47103  1  0  0  0
 47104  1  0  0  0
 48 49  1  0  0  0
 48105  1  0  0  0
 48106  1  0  0  0
 49 50  1  0  0  0
 49107  1  0  0  0
 49108  1  0  0  0
 50 51  1  0  0  0
 50109  1  0  0  0
 50110  1  0  0  0
 51 52  1  0  0  0
 51111  1  0  0  0
 51112  1  0  0  0
 52 55  1  0  0  0
 52113  1  0  0  0
 52114  1  0  0  0
 53 42  2  0  0  0
 53115  1  0  0  0
 54 53  1  0  0  0
 54116  1  0  0  0
 54117  1  0  0  0
 54118  1  0  0  0
 55119  1  0  0  0
 55120  1  0  0  0
 56 55  1  0  0  0
 56 57  1  0  0  0
 56121  1  0  0  0
 56122  1  0  0  0
 57123  1  0  0  0
 57124  1  0  0  0
 57125  1  0  0  0
M  END
$$$$
