J89
  CCTOOLS-0919241036

 60 60  0  0  1  0  0  0  0  0999 V2000
    6.4260   -1.9390    0.1650 P   0  0  0  0  0
  -10.8100   -3.6780   -0.1650 C   0  0  0  0  0
  -10.3180   -2.2300   -0.0950 C   0  0  0  0  0
   -8.7880   -2.2110   -0.0840 C   0  0  0  0  0
   -8.2970   -0.7640   -0.0130 C   0  0  0  0  0
   -6.7670   -0.7450   -0.0020 C   0  0  0  0  0
   -6.2750    0.7020    0.0680 C   0  0  0  0  0
   -4.7460    0.7210    0.0800 C   0  0  0  0  0
   -4.2540    2.1680    0.1500 C   0  0  0  0  0
   -2.7470    2.1870    0.1620 C   0  0  0  0  0
   -2.0640    2.1340    1.3620 C   0  0  0  0  0
   -0.6820    2.1520    1.3730 C   0  0  0  0  0
    0.0170    2.2210    0.1820 C   0  0  0  0  0
   -0.6660    2.2740   -1.0190 C   0  0  0  0  0
   -2.0480    2.2510   -1.0290 C   0  0  0  0  0
    1.5240    2.2400    0.1930 C   0  0  0  0  0
    2.0530    0.8060    0.1240 C   0  0  0  0  0
    3.5820    0.8250    0.1360 C   0  0  0  0  0
    4.0920    1.6150   -1.0720 C   0  0  0  0  0
    3.6320    0.9950   -2.2740 O   0  0  0  0  0
    4.1110   -0.6090    0.0670 C   0  0  0  0  0
    5.5340   -0.5990    0.1940 O   0  0  0  0  0
    5.9360   -2.8810    1.1970 O   0  0  0  0  0
    6.3150   -2.6270   -1.2860 O   0  0  0  0  0
    7.9640   -1.5660    0.4660 O   0  0  0  0  0
    4.0550    1.4620    1.3720 N   0  0  0  0  0
  -10.4340   -4.1450   -1.0750 H   0  0  0  0  0
  -10.4460   -4.2270    0.7030 H   0  0  0  0  0
  -11.9000   -3.6910   -0.1740 H   0  0  0  0  0
  -10.6820   -1.6810   -0.9630 H   0  0  0  0  0
   -8.4250   -2.7610    0.7840 H   0  0  0  0  0
   -8.6600   -0.2140   -0.8810 H   0  0  0  0  0
   -8.6730   -0.2970    0.8970 H   0  0  0  0  0
   -6.4030   -1.2950    0.8660 H   0  0  0  0  0
   -6.3910   -1.2130   -0.9120 H   0  0  0  0  0
   -6.6390    1.2520   -0.7990 H   0  0  0  0  0
   -4.3820    0.1710    0.9480 H   0  0  0  0  0
   -4.6180    2.7180   -0.7180 H   0  0  0  0  0
   -4.6300    2.6360    1.0600 H   0  0  0  0  0
   -2.6110    2.0800    2.2920 H   0  0  0  0  0
   -0.1480    2.1120    2.3110 H   0  0  0  0  0
   -0.1190    2.3280   -1.9490 H   0  0  0  0  0
   -2.5810    2.2870   -1.9670 H   0  0  0  0  0
    1.8870    2.8030   -0.6670 H   0  0  0  0  0
    1.6900    0.2430    0.9840 H   0  0  0  0  0
    3.7150    2.6360   -1.0220 H   0  0  0  0  0
    5.1810    1.6280   -1.0640 H   0  0  0  0  0
    3.9180    1.4440   -3.0820 H   0  0  0  0  0
    3.6770   -1.1960    0.8770 H   0  0  0  0  0
    3.8350   -1.0520   -0.8900 H   0  0  0  0  0
    6.6200   -2.0650   -2.0120 H   0  0  0  0  0
    3.7730    2.4300    1.4110 H   0  0  0  0  0
    3.7320    0.9580    2.1850 H   0  0  0  0  0
  -10.6940   -1.7630    0.8150 H   0  0  0  0  0
   -8.4120   -2.6790   -0.9940 H   0  0  0  0  0
   -6.6510    1.1690    0.9790 H   0  0  0  0  0
   -4.3700    0.2530   -0.8300 H   0  0  0  0  0
    1.8750    2.7130    1.1110 H   0  0  0  0  0
    1.7020    0.3330   -0.7930 H   0  0  0  0  0
    8.5600   -2.3270    0.4640 H   0  0  0  0  0
  1 23  2  0  0  0
  1 24  1  0  0  0
  1 22  1  0  0  0
  2  3  1  0  0  0
  2 27  1  0  0  0
  2 28  1  0  0  0
  2 29  1  0  0  0
  3  4  1  0  0  0
  3 30  1  0  0  0
  3 54  1  0  0  0
  4 31  1  0  0  0
  4 55  1  0  0  0
  5  4  1  0  0  0
  5  6  1  0  0  0
  5 32  1  0  0  0
  5 33  1  0  0  0
  6 34  1  0  0  0
  6 35  1  0  0  0
  7  6  1  0  0  0
  7 36  1  0  0  0
  7 56  1  0  0  0
  8  7  1  0  0  0
  8 37  1  0  0  0
  8 57  1  0  0  0
  9  8  1  0  0  0
  9 38  1  0  0  0
  9 39  1  0  0  0
 10  9  1  0  0  0
 10 15  2  0  0  0
 11 10  1  0  0  0
 11 40  1  0  0  0
 12 11  2  0  0  0
 12 13  1  0  0  0
 12 41  1  0  0  0
 13 14  2  0  0  0
 14 15  1  0  0  0
 14 42  1  0  0  0
 15 43  1  0  0  0
 16 13  1  0  0  0
 16 44  1  0  0  0
 16 58  1  0  0  0
 17 16  1  0  0  0
 17 45  1  0  0  0
 17 59  1  0  0  0
 18 17  1  0  0  0
 18 26  1  0  0  0
 19 18  1  0  0  0
 19 46  1  0  0  0
 19 47  1  0  0  0
 20 19  1  0  0  0
 20 48  1  0  0  0
 21 18  1  0  0  0
 21 49  1  0  0  0
 21 50  1  0  0  0
 22 21  1  0  0  0
 24 51  1  0  0  0
 25  1  1  0  0  0
 25 60  1  0  0  0
 26 52  1  0  0  0
 26 53  1  0  0  0
M  END
$$$$
