K71
  CCTOOLS-0919241041

 33 33  0  0  1  0  0  0  0  0999 V2000
    3.1640   -2.9070   -0.5710 C   0  0  0  0  0
    2.0530   -2.5210    0.2410 O   0  0  0  0  0
    1.2890   -1.4390   -0.2950 C   0  0  0  0  0
   -0.1690   -1.5680    0.1570 C   0  0  0  0  0
   -0.2250   -1.6030    1.5840 O   0  0  0  0  0
    1.8540   -0.1100    0.2140 C   0  0  0  0  0
    0.9820    1.0380   -0.3020 C   0  0  0  0  0
    1.4970    2.3450    0.2430 C   0  0  0  0  0
    1.6410    2.5090    1.5680 O   0  0  0  0  0
    1.7810    3.2440   -0.5110 O   0  0  0  0  0
    1.0280    1.0660   -1.7300 O   0  0  0  0  0
   -0.3660    0.8400    0.1280 O   0  0  0  0  0
   -0.9630   -0.3640   -0.3570 C   0  0  0  0  0
   -2.4070   -0.4550    0.1410 C   0  0  0  0  0
   -3.0030   -1.6600   -0.3430 O   0  0  0  0  0
   -3.2000    0.7490   -0.3730 C   0  0  0  0  0
   -4.5150    0.7260    0.1860 O   0  0  0  0  0
    3.8410   -2.0600   -0.6850 H   0  0  0  0  0
    3.6920   -3.7330   -0.0940 H   0  0  0  0  0
    2.8060   -3.2210   -1.5510 H   0  0  0  0  0
    1.3380   -1.4630   -1.3840 H   0  0  0  0  0
   -0.5960   -2.4860   -0.2480 H   0  0  0  0  0
    0.2620   -2.3400    1.9790 H   0  0  0  0  0
    1.8520   -0.1070    1.3040 H   0  0  0  0  0
    2.8740    0.0150   -0.1500 H   0  0  0  0  0
    1.9750    3.3650    1.8700 H   0  0  0  0  0
    0.4960    1.7700   -2.1260 H   0  0  0  0  0
   -0.9540   -0.3610   -1.4470 H   0  0  0  0  0
   -2.4160   -0.4580    1.2310 H   0  0  0  0  0
   -3.0290   -1.7260   -1.3080 H   0  0  0  0  0
   -2.6950    1.6690   -0.0780 H   0  0  0  0  0
   -3.2660    0.7030   -1.4590 H   0  0  0  0  0
   -5.0750    1.4620   -0.0960 H   0  0  0  0  0
  1  2  1  0  0  0
  1 18  1  0  0  0
  1 19  1  0  0  0
  1 20  1  0  0  0
  2  3  1  0  0  0
  3  6  1  0  0  0
  3 21  1  0  0  0
  4  3  1  0  0  0
  4 13  1  0  0  0
  4 22  1  0  0  0
  5  4  1  0  0  0
  5 23  1  0  0  0
  6  7  1  0  0  0
  6 24  1  0  0  0
  6 25  1  0  0  0
  7 11  1  0  0  0
  7  8  1  0  0  0
  8  9  1  0  0  0
  9 26  1  0  0  0
 10  8  2  0  0  0
 11 27  1  0  0  0
 12  7  1  0  0  0
 13 12  1  0  0  0
 13 28  1  0  0  0
 14 13  1  0  0  0
 14 16  1  0  0  0
 14 29  1  0  0  0
 15 14  1  0  0  0
 15 30  1  0  0  0
 16 17  1  0  0  0
 16 31  1  0  0  0
 16 32  1  0  0  0
 17 33  1  0  0  0
M  END
$$$$
