KCA
  CCTOOLS-0919241042

 53 55  0  0  1  0  0  0  0  0999 V2000
   -2.1660    0.0850    0.0030 N   0  0  0  0  0
   -3.5510    0.2600   -0.4400 C   0  0  0  0  0
   -3.9100    1.7230   -0.4030 C   0  0  0  0  0
   -3.0920    2.5360   -0.0440 O   0  0  0  0  0
   -4.4850   -0.5180    0.4900 C   0  0  0  0  0
   -5.9320   -0.3350    0.0270 C   0  0  0  0  0
   -4.1220   -2.0030    0.4530 C   0  0  0  0  0
   -1.4580   -0.9880   -0.4030 C   0  0  0  0  0
   -5.4130    3.5470   -0.7100 C   0  0  0  0  0
   -4.3370    0.0090    1.9190 C   0  0  0  0  0
   -0.0640   -1.1630    0.0420 C   0  0  0  0  0
    2.8030   -0.1070    1.8700 C   0  0  0  0  0
    3.5900    0.8630    1.0260 C   0  0  0  0  0
    4.7440    0.4470    0.3900 C   0  0  0  0  0
    5.4660    1.3350   -0.3850 C   0  0  0  0  0
    5.0320    2.6430   -0.5230 C   0  0  0  0  0
    3.8760    3.0590    0.1150 C   0  0  0  0  0
    3.1530    2.1670    0.8840 C   0  0  0  0  0
    2.0410   -1.9600    0.3610 C   0  0  0  0  0
    0.8410   -2.2650   -0.3110 C   0  0  0  0  0
    0.7480   -3.4140   -1.0900 C   0  0  0  0  0
    1.8280   -4.2460   -1.1990 C   0  0  0  0  0
    3.0140   -3.9530   -0.5390 C   0  0  0  0  0
    3.1270   -2.8200    0.2360 C   0  0  0  0  0
    5.7370    3.5120   -1.2790 F   0  0  0  0  0
    0.6180   -0.3610    0.8310 N   0  0  0  0  0
    1.8120   -0.7890    1.0340 N   0  0  0  0  0
   -1.9700   -1.8110   -1.1380 O   0  0  0  0  0
   -5.1380    2.1220   -0.7700 O   0  0  0  0  0
   -1.7560    0.7440    0.5860 H   0  0  0  0  0
   -3.6570   -0.1150   -1.4580 H   0  0  0  0  0
   -6.0380   -0.7100   -0.9910 H   0  0  0  0  0
   -6.5980   -0.8890    0.6890 H   0  0  0  0  0
   -6.1920    0.7230    0.0530 H   0  0  0  0  0
   -3.0910   -2.1330    0.7820 H   0  0  0  0  0
   -4.7870   -2.5570    1.1150 H   0  0  0  0  0
   -4.2270   -2.3780   -0.5650 H   0  0  0  0  0
   -6.4380    3.7330   -1.0320 H   0  0  0  0  0
   -5.2840    3.8990    0.3130 H   0  0  0  0  0
   -4.7240    4.0780   -1.3670 H   0  0  0  0  0
   -4.5960    1.0670    1.9450 H   0  0  0  0  0
   -5.0030   -0.5450    2.5810 H   0  0  0  0  0
   -3.3060   -0.1210    2.2480 H   0  0  0  0  0
    3.4800   -0.8430    2.3040 H   0  0  0  0  0
    2.2950    0.4350    2.6680 H   0  0  0  0  0
    5.0820   -0.5730    0.4980 H   0  0  0  0  0
    6.3680    1.0100   -0.8810 H   0  0  0  0  0
    3.5370    4.0780    0.0080 H   0  0  0  0  0
    2.2480    2.4900    1.3780 H   0  0  0  0  0
   -0.1720   -3.6480   -1.6050 H   0  0  0  0  0
    1.7570   -5.1390   -1.8030 H   0  0  0  0  0
    3.8580   -4.6200   -0.6360 H   0  0  0  0  0
    4.0540   -2.6010    0.7450 H   0  0  0  0  0
  1  2  1  0  0  0
  1 30  1  0  0  0
  2  3  1  0  0  0
  2  5  1  0  0  0
  2 31  1  0  0  0
  3 29  1  0  0  0
  4  3  2  0  0  0
  5 10  1  0  0  0
  5  6  1  0  0  0
  6 32  1  0  0  0
  6 33  1  0  0  0
  6 34  1  0  0  0
  7  5  1  0  0  0
  7 35  1  0  0  0
  7 36  1  0  0  0
  7 37  1  0  0  0
  8  1  1  0  0  0
  9 38  1  0  0  0
  9 39  1  0  0  0
  9 40  1  0  0  0
 10 41  1  0  0  0
 10 42  1  0  0  0
 10 43  1  0  0  0
 11 26  2  0  0  0
 11  8  1  0  0  0
 12 13  1  0  0  0
 12 44  1  0  0  0
 12 45  1  0  0  0
 13 18  1  0  0  0
 14 13  2  0  0  0
 14 15  1  0  0  0
 14 46  1  0  0  0
 15 16  2  0  0  0
 15 47  1  0  0  0
 16 17  1  0  0  0
 16 25  1  0  0  0
 17 48  1  0  0  0
 18 17  2  0  0  0
 18 49  1  0  0  0
 19 20  1  0  0  0
 19 27  1  0  0  0
 20 11  1  0  0  0
 21 20  2  0  0  0
 21 50  1  0  0  0
 22 21  1  0  0  0
 22 51  1  0  0  0
 23 22  2  0  0  0
 23 24  1  0  0  0
 23 52  1  0  0  0
 24 19  2  0  0  0
 24 53  1  0  0  0
 27 12  1  0  0  0
 27 26  1  0  0  0
 28  8  2  0  0  0
 29  9  1  0  0  0
M  END
$$$$
