KW0
  CCTOOLS-0919241044

 87 86  0  0  1  0  0  0  0  0999 V2000
   -5.4180    2.9300   -1.1470 C   0  0  0  0  0
   -6.7540    2.4510   -0.5730 C   0  0  0  0  0
  -14.4700   -5.0790    1.8790 C   0  0  0  0  0
  -13.0810   -4.7230    1.3440 C   0  0  0  0  0
  -13.0540   -3.2470    0.9390 C   0  0  0  0  0
  -11.6650   -2.8910    0.4040 C   0  0  0  0  0
  -11.6380   -1.4160   -0.0010 C   0  0  0  0  0
  -10.2490   -1.0600   -0.5360 C   0  0  0  0  0
  -10.2220    0.4150   -0.9420 C   0  0  0  0  0
   -8.8330    0.7710   -1.4770 C   0  0  0  0  0
   -8.8060    2.2240   -1.8760 C   0  0  0  0  0
   -7.8850    3.0190   -1.3920 C   0  0  0  0  0
   -4.2700    2.3530   -0.3170 C   0  0  0  0  0
   -2.9350    2.8320   -0.8910 C   0  0  0  0  0
   -1.7870    2.2550   -0.0600 C   0  0  0  0  0
   -0.4520    2.7340   -0.6340 C   0  0  0  0  0
    0.6960    2.1570    0.1970 C   0  0  0  0  0
    2.0110    2.6280   -0.3690 C   0  0  0  0  0
    2.0290    3.3510   -1.3370 O   0  0  0  0  0
    3.1640    2.2450    0.2030 O   0  0  0  0  0
    4.3920    2.7370   -0.3950 C   0  0  0  0  0
    5.5920    2.1990    0.3870 C   0  0  0  0  0
    5.4430    2.5660    1.8650 C   0  0  0  0  0
    4.1860    2.0890    2.3500 O   0  0  0  0  0
    3.9460    2.3810    3.7280 C   0  0  0  0  0
    2.5790    1.8280    4.1360 C   0  0  0  0  0
    5.6490    0.7770    0.2530 O   0  0  0  0  0
    6.9080    0.0080   -0.3910 P   0  0  0  0  0
    7.0440    0.4070   -1.9450 O   0  0  0  0  0
    8.1420    0.3940    0.3280 O   0  0  0  0  0
    6.6870   -1.5820   -0.2630 O   0  0  0  0  0
    7.6770   -2.5390   -0.6480 C   0  0  0  0  0
    7.1460   -3.9510   -0.3960 C   0  0  0  0  0
    6.9520   -4.1520    1.0460 N   0  0  0  0  0
    8.1380   -4.9600   -0.9150 C   0  0  0  0  0
    8.1810   -5.2460   -2.2260 O   0  0  0  0  0
    8.8940   -5.5120   -0.1520 O   0  0  0  0  0
   -5.3250    2.5920   -2.1800 H   0  0  0  0  0
   -5.3790    4.0180   -1.1160 H   0  0  0  0  0
   -6.7930    1.3620   -0.6050 H   0  0  0  0  0
   -6.8470    2.7880    0.4590 H   0  0  0  0  0
  -14.4900   -6.1300    2.1680 H   0  0  0  0  0
  -14.6940   -4.4590    2.7480 H   0  0  0  0  0
  -15.2150   -4.9010    1.1040 H   0  0  0  0  0
  -12.3370   -4.9000    2.1200 H   0  0  0  0  0
  -12.8570   -5.3420    0.4760 H   0  0  0  0  0
  -13.7990   -3.0700    0.1630 H   0  0  0  0  0
  -13.2780   -2.6280    1.8070 H   0  0  0  0  0
  -10.9200   -3.0690    1.1800 H   0  0  0  0  0
  -11.4410   -3.5110   -0.4640 H   0  0  0  0  0
  -12.3830   -1.2390   -0.7770 H   0  0  0  0  0
  -11.8620   -0.7970    0.8670 H   0  0  0  0  0
   -9.5050   -1.2380    0.2390 H   0  0  0  0  0
  -10.0250   -1.6800   -1.4050 H   0  0  0  0  0
  -10.9670    0.5920   -1.7170 H   0  0  0  0  0
  -10.4460    1.0340   -0.0730 H   0  0  0  0  0
   -8.0890    0.5930   -0.7010 H   0  0  0  0  0
   -8.6090    0.1510   -2.3450 H   0  0  0  0  0
   -9.5470    2.6090   -2.5610 H   0  0  0  0  0
   -7.9350    4.0810   -1.5790 H   0  0  0  0  0
   -4.3640    2.6900    0.7160 H   0  0  0  0  0
   -4.3100    1.2640   -0.3480 H   0  0  0  0  0
   -2.8420    2.4940   -1.9230 H   0  0  0  0  0
   -2.8950    3.9200   -0.8590 H   0  0  0  0  0
   -1.8800    2.5920    0.9720 H   0  0  0  0  0
   -1.8270    1.1660   -0.0920 H   0  0  0  0  0
   -0.3590    2.3960   -1.6660 H   0  0  0  0  0
   -0.4120    3.8220   -0.6030 H   0  0  0  0  0
    0.6030    2.4940    1.2290 H   0  0  0  0  0
    0.6570    1.0680    0.1650 H   0  0  0  0  0
    4.4520    2.4010   -1.4300 H   0  0  0  0  0
    4.3990    3.8270   -0.3660 H   0  0  0  0  0
    6.5080    2.6380   -0.0060 H   0  0  0  0  0
    6.2500    2.1070    2.4360 H   0  0  0  0  0
    5.4880    3.6490    1.9770 H   0  0  0  0  0
    4.7220    1.9190    4.3380 H   0  0  0  0  0
    3.9610    3.4610    3.8790 H   0  0  0  0  0
    1.8030    2.2900    3.5270 H   0  0  0  0  0
    2.5650    0.7480    3.9860 H   0  0  0  0  0
    2.3960    2.0500    5.1880 H   0  0  0  0  0
    6.2690    0.1830   -2.4780 H   0  0  0  0  0
    7.9040   -2.4190   -1.7080 H   0  0  0  0  0
    8.5820   -2.3810   -0.0620 H   0  0  0  0  0
    6.1940   -4.0790   -0.9120 H   0  0  0  0  0
    7.8210   -4.0390    1.5460 H   0  0  0  0  0
    6.2440   -3.5300    1.4060 H   0  0  0  0  0
    8.8330   -5.9000   -2.5120 H   0  0  0  0  0
  1 38  1  0  0  0
  1 39  1  0  0  0
  2  1  1  0  0  0
  2 40  1  0  0  0
  2 41  1  0  0  0
  3  4  1  0  0  0
  3 42  1  0  0  0
  3 43  1  0  0  0
  3 44  1  0  0  0
  4  5  1  0  0  0
  4 45  1  0  0  0
  4 46  1  0  0  0
  5  6  1  0  0  0
  5 47  1  0  0  0
  5 48  1  0  0  0
  6 49  1  0  0  0
  6 50  1  0  0  0
  7  6  1  0  0  0
  7  8  1  0  0  0
  7 51  1  0  0  0
  7 52  1  0  0  0
  8  9  1  0  0  0
  8 53  1  0  0  0
  8 54  1  0  0  0
  9 10  1  0  0  0
  9 55  1  0  0  0
  9 56  1  0  0  0
 10 11  1  0  0  0
 10 57  1  0  0  0
 10 58  1  0  0  0
 11 12  2  0  0  0
 11 59  1  0  0  0
 12  2  1  0  0  0
 12 60  1  0  0  0
 13  1  1  0  0  0
 13 14  1  0  0  0
 13 61  1  0  0  0
 13 62  1  0  0  0
 14 63  1  0  0  0
 14 64  1  0  0  0
 15 16  1  0  0  0
 15 14  1  0  0  0
 15 65  1  0  0  0
 15 66  1  0  0  0
 16 67  1  0  0  0
 16 68  1  0  0  0
 17 16  1  0  0  0
 17 18  1  0  0  0
 17 69  1  0  0  0
 17 70  1  0  0  0
 18 20  1  0  0  0
 19 18  2  0  0  0
 20 21  1  0  0  0
 21 22  1  0  0  0
 21 71  1  0  0  0
 21 72  1  0  0  0
 22 23  1  0  0  0
 22 27  1  0  0  0
 22 73  1  0  0  0
 23 74  1  0  0  0
 23 75  1  0  0  0
 24 25  1  0  0  0
 24 23  1  0  0  0
 25 76  1  0  0  0
 25 77  1  0  0  0
 26 25  1  0  0  0
 26 78  1  0  0  0
 26 79  1  0  0  0
 26 80  1  0  0  0
 27 28  1  0  0  0
 28 30  2  0  0  0
 28 29  1  0  0  0
 29 81  1  0  0  0
 31 28  1  0  0  0
 32 31  1  0  0  0
 32 82  1  0  0  0
 32 83  1  0  0  0
 33 34  1  0  0  0
 33 32  1  0  0  0
 33 84  1  0  0  0
 34 85  1  0  0  0
 34 86  1  0  0  0
 35 36  1  0  0  0
 35 33  1  0  0  0
 36 87  1  0  0  0
 37 35  2  0  0  0
M  END
$$$$
