KW3
  CCTOOLS-0919241044

 79 81  0  0  1  0  0  0  0  0999 V2000
   -9.5440   -0.1810   -0.7060 C   0  0  0  0  0
    3.4060   -5.1430   -1.0140 C   0  0  0  0  0
    2.7170   -6.3080   -1.2930 C   0  0  0  0  0
    7.8640    4.6110   -0.7670 C   0  0  0  0  0
    0.9190   -5.5890    0.1190 C   0  0  0  0  0
    0.2750   -2.3360    0.5030 C   0  0  0  0  0
   -2.3200    1.7750    1.1100 C   0  0  0  0  0
   -1.3800    2.4140    0.0860 C   0  0  0  0  0
    0.0530    1.8950   -1.7640 C   0  0  0  0  0
    0.5650    0.7290   -2.6120 C   0  0  0  0  0
   -0.8420    1.4010   -0.7660 O   0  0  0  0  0
   -1.5750    0.6740    1.8670 C   0  0  0  0  0
   -1.0200   -0.2750    0.9190 O   0  0  0  0  0
   -0.3310   -1.3100    1.4260 C   0  0  0  0  0
   -0.1960   -1.4190    2.6210 O   0  0  0  0  0
    1.0010   -3.4000    1.3290 C   0  0  0  0  0
    1.6070   -4.4250    0.4060 C   0  0  0  0  0
    1.4750   -6.5310   -0.7280 C   0  0  0  0  0
    2.8530   -4.2000   -0.1610 C   0  0  0  0  0
    3.5300   -3.0560    0.1200 O   0  0  0  0  0
    4.8080   -2.8900   -0.4990 C   0  0  0  0  0
    5.4050   -1.5740   -0.0740 C   0  0  0  0  0
    6.2010   -1.5080    1.0550 C   0  0  0  0  0
    6.7500   -0.3010    1.4480 C   0  0  0  0  0
    6.5050    0.8420    0.7130 C   0  0  0  0  0
    5.7070    0.7790   -0.4210 C   0  0  0  0  0
    5.4650    1.9030   -1.1450 O   0  0  0  0  0
    6.0320    3.0650   -0.7290 C   0  0  0  0  0
    5.3570    3.8900    0.1590 C   0  0  0  0  0
    5.9340    5.0730    0.5770 C   0  0  0  0  0
    7.1870    5.4340    0.1140 C   0  0  0  0  0
    7.2890    3.4300   -1.1920 C   0  0  0  0  0
    5.1620   -0.4340   -0.8160 C   0  0  0  0  0
   -3.4470    1.2110    0.4350 O   0  0  0  0  0
   -4.9620    1.6730    0.7210 P   0  0  0  0  0
   -5.2520    1.5440    2.1670 O   0  0  0  0  0
   -5.1490    3.2070    0.2710 O   0  0  0  0  0
   -5.9740    0.7410   -0.1140 O   0  0  0  0  0
   -7.3950    0.8320    0.0060 C   0  0  0  0  0
   -8.0520   -0.1910   -0.9230 C   0  0  0  0  0
   -7.7580    0.1560   -2.3190 N   0  0  0  0  0
  -10.2620    0.4140   -1.4750 O   0  0  0  0  0
  -10.0750   -0.8370    0.3370 O   0  0  0  0  0
    4.3760   -4.9700   -1.4560 H   0  0  0  0  0
    3.1490   -7.0450   -1.9540 H   0  0  0  0  0
    8.8420    4.8960   -1.1270 H   0  0  0  0  0
   -0.0510   -5.7660    0.5590 H   0  0  0  0  0
   -0.5130   -2.8060   -0.0850 H   0  0  0  0  0
    0.9850   -1.8480   -0.1660 H   0  0  0  0  0
   -2.6610    2.5340    1.8140 H   0  0  0  0  0
   -1.9340    3.1370   -0.5140 H   0  0  0  0  0
   -0.5670    2.9210    0.6050 H   0  0  0  0  0
    0.8960    2.3910   -1.2820 H   0  0  0  0  0
   -0.4710    2.6060   -2.4020 H   0  0  0  0  0
   -0.2780    0.2330   -3.0940 H   0  0  0  0  0
    1.2480    1.1060   -3.3740 H   0  0  0  0  0
    1.0890    0.0180   -1.9740 H   0  0  0  0  0
   -0.7690    1.1170    2.4530 H   0  0  0  0  0
   -2.2670    0.1590    2.5330 H   0  0  0  0  0
    1.7890   -2.9290    1.9160 H   0  0  0  0  0
    0.2910   -3.8870    1.9970 H   0  0  0  0  0
    0.9380   -7.4420   -0.9470 H   0  0  0  0  0
    5.4670   -3.7030   -0.1940 H   0  0  0  0  0
    4.6910   -2.9030   -1.5820 H   0  0  0  0  0
    6.3930   -2.4010    1.6310 H   0  0  0  0  0
    7.3710   -0.2530    2.3310 H   0  0  0  0  0
    6.9340    1.7840    1.0210 H   0  0  0  0  0
    4.3790    3.6090    0.5210 H   0  0  0  0  0
    5.4090    5.7150    1.2680 H   0  0  0  0  0
    7.6360    6.3590    0.4420 H   0  0  0  0  0
    7.8170    2.7900   -1.8830 H   0  0  0  0  0
    4.5400   -0.4850   -1.6970 H   0  0  0  0  0
   -7.6860    0.6270    1.0360 H   0  0  0  0  0
   -7.7200    1.8350   -0.2700 H   0  0  0  0  0
   -7.6610   -1.1840   -0.7040 H   0  0  0  0  0
   -8.1270   -0.5400   -2.9500 H   0  0  0  0  0
   -8.1110    1.0730   -2.5460 H   0  0  0  0  0
  -11.0360   -0.8020    0.4350 H   0  0  0  0  0
   -4.9750    3.3660   -0.6670 H   0  0  0  0  0
  1 43  1  0  0  0
  1 40  1  0  0  0
  2 44  1  0  0  0
  3  2  2  0  0  0
  3 45  1  0  0  0
  4 46  1  0  0  0
  5 18  2  0  0  0
  5 17  1  0  0  0
  5 47  1  0  0  0
  6 14  1  0  0  0
  6 16  1  0  0  0
  6 48  1  0  0  0
  6 49  1  0  0  0
  7 34  1  0  0  0
  7 12  1  0  0  0
  7 50  1  0  0  0
  8  7  1  0  0  0
  8 51  1  0  0  0
  8 52  1  0  0  0
  9 11  1  0  0  0
  9 53  1  0  0  0
  9 54  1  0  0  0
 10  9  1  0  0  0
 10 55  1  0  0  0
 10 56  1  0  0  0
 10 57  1  0  0  0
 11  8  1  0  0  0
 12 58  1  0  0  0
 12 59  1  0  0  0
 13 12  1  0  0  0
 14 13  1  0  0  0
 15 14  2  0  0  0
 16 17  1  0  0  0
 16 60  1  0  0  0
 16 61  1  0  0  0
 17 19  2  0  0  0
 18  3  1  0  0  0
 18 62  1  0  0  0
 19  2  1  0  0  0
 19 20  1  0  0  0
 20 21  1  0  0  0
 21 22  1  0  0  0
 21 63  1  0  0  0
 21 64  1  0  0  0
 22 23  2  0  0  0
 23 24  1  0  0  0
 23 65  1  0  0  0
 24 66  1  0  0  0
 25 24  2  0  0  0
 25 67  1  0  0  0
 26 25  1  0  0  0
 27 28  1  0  0  0
 27 26  1  0  0  0
 28 32  2  0  0  0
 29 30  2  0  0  0
 29 28  1  0  0  0
 29 68  1  0  0  0
 30 31  1  0  0  0
 30 69  1  0  0  0
 31  4  2  0  0  0
 31 70  1  0  0  0
 32  4  1  0  0  0
 32 71  1  0  0  0
 33 26  2  0  0  0
 33 22  1  0  0  0
 33 72  1  0  0  0
 34 35  1  0  0  0
 35 36  2  0  0  0
 35 37  1  0  0  0
 37 79  1  0  0  0
 38 35  1  0  0  0
 39 38  1  0  0  0
 39 73  1  0  0  0
 39 74  1  0  0  0
 40 39  1  0  0  0
 40 75  1  0  0  0
 41 40  1  0  0  0
 41 76  1  0  0  0
 41 77  1  0  0  0
 42  1  2  0  0  0
 43 78  1  0  0  0
M  END
$$$$
