LBN
  CCTOOLS-0919241029

134133  0  0  1  0  0  0  0  0999 V2000
    0.3990   -4.8180   -1.1310 C   0  0  0  0  0
   -4.3320   -2.5560    2.9920 N   0  3  0  0  0
   -1.1030   -4.9030    1.0780 P   0  0  0  0  0
    0.8320   -3.8270   -2.2130 C   0  0  0  0  0
   -0.4070   -3.2030   -2.8570 C   0  0  0  0  0
  -11.8560    3.6200    0.0280 C   0  0  0  0  0
   13.3370    0.0360    0.0680 C   0  0  0  0  0
   -3.1730   -2.9190    3.8180 C   0  0  0  0  0
   -0.4580   -4.1590   -0.1970 O   0  0  0  0  0
  -13.0680    4.2210   -0.6880 C   0  0  0  0  0
   13.0070    1.4510   -0.3310 C   0  0  0  0  0
   -2.4980   -4.1620    3.2330 C   0  0  0  0  0
   -1.9010   -3.8320    1.9770 O   0  0  0  0  0
  -13.9980    4.8690    0.3400 C   0  0  0  0  0
   14.0190    2.4080    0.3010 C   0  0  0  0  0
   -3.8700   -2.1030    1.6730 C   0  0  0  0  0
   -2.0790   -5.9990    0.5950 O   0  5  0  0  0
  -15.2090    5.4700   -0.3760 C   0  0  0  0  0
   13.6830    3.8450   -0.1040 C   0  0  0  0  0
   -5.2040   -3.7270    2.8300 C   0  0  0  0  0
    0.0200   -5.5480    1.9200 O   0  0  0  0  0
  -16.1390    6.1180    0.6520 C   0  0  0  0  0
   14.6960    4.8030    0.5280 C   0  0  0  0  0
   -5.0810   -1.4750    3.6470 C   0  0  0  0  0
  -17.3510    6.7190   -0.0640 C   0  0  0  0  0
   14.3600    6.2400    0.1230 C   0  0  0  0  0
  -18.2810    7.3670    0.9630 C   0  0  0  0  0
   15.3720    7.1970    0.7550 C   0  0  0  0  0
   15.0370    8.6340    0.3500 C   0  0  0  0  0
   16.0490    9.5920    0.9820 C   0  0  0  0  0
   -2.3750   -2.0140   -2.2300 C   0  0  0  0  0
   -1.2410   -2.6080   -1.8280 O   0  0  0  0  0
   -3.2910   -1.3750   -1.2180 C   0  0  0  0  0
   -2.6620   -1.9920   -3.4040 O   0  0  0  0  0
   -4.5030   -0.7750   -1.9340 C   0  0  0  0  0
   -5.4320   -0.1260   -0.9060 C   0  0  0  0  0
   -6.6440    0.4740   -1.6220 C   0  0  0  0  0
   -7.5740    1.1220   -0.5950 C   0  0  0  0  0
   -8.7850    1.7230   -1.3110 C   0  0  0  0  0
   -9.7150    2.3720   -0.2830 C   0  0  0  0  0
  -10.9270    2.9720   -0.9990 C   0  0  0  0  0
    2.9700   -2.9950   -1.5670 C   0  0  0  0  0
    1.6450   -2.7830   -1.6150 O   0  0  0  0  0
    3.8770   -1.9560   -0.9610 C   0  0  0  0  0
    3.4340   -4.0190   -2.0090 O   0  0  0  0  0
    5.3270   -2.4410   -1.0310 C   0  0  0  0  0
    6.2480   -1.3860   -0.4150 C   0  0  0  0  0
    7.6970   -1.8710   -0.4850 C   0  0  0  0  0
    8.6190   -0.8160    0.1300 C   0  0  0  0  0
   10.0680   -1.3020    0.0600 C   0  0  0  0  0
   10.9890   -0.2460    0.6750 C   0  0  0  0  0
   12.4170   -0.7250    0.6070 C   0  0  0  0  0
   -0.1360   -5.6490   -1.5920 H   0  0  0  0  0
    1.2800   -5.1970   -0.6110 H   0  0  0  0  0
    1.4130   -4.3500   -2.9730 H   0  0  0  0  0
   -0.1000   -2.4330   -3.5650 H   0  0  0  0  0
   -0.9710   -3.9740   -3.3820 H   0  0  0  0  0
  -11.3200    4.4080    0.5580 H   0  0  0  0  0
  -12.1920    2.8670    0.7410 H   0  0  0  0  0
   14.3330   -0.3520   -0.0910 H   0  0  0  0  0
   -2.4630   -2.0920    3.8310 H   0  0  0  0  0
   -3.5030   -3.1310    4.8350 H   0  0  0  0  0
  -12.7320    4.9740   -1.4000 H   0  0  0  0  0
  -13.6040    3.4330   -1.2170 H   0  0  0  0  0
   13.0490    1.5420   -1.4170 H   0  0  0  0  0
   12.0040    1.7010    0.0150 H   0  0  0  0  0
   -1.7290   -4.5150    3.9190 H   0  0  0  0  0
   -3.2430   -4.9450    3.0870 H   0  0  0  0  0
  -14.3330    4.1160    1.0530 H   0  0  0  0  0
  -13.4620    5.6570    0.8690 H   0  0  0  0  0
   13.9760    2.3180    1.3860 H   0  0  0  0  0
   -4.6890   -1.6050    1.1530 H   0  0  0  0  0
   -3.0410   -1.4070    1.7980 H   0  0  0  0  0
   -3.5390   -2.9620    1.0890 H   0  0  0  0  0
  -14.8740    6.2230   -1.0890 H   0  0  0  0  0
  -15.7460    4.6820   -0.9050 H   0  0  0  0  0
   13.7260    3.9360   -1.1900 H   0  0  0  0  0
   -6.0640   -3.4580    2.2170 H   0  0  0  0  0
   -4.6480   -4.5300    2.3440 H   0  0  0  0  0
   -5.5460   -4.0630    3.8080 H   0  0  0  0  0
  -16.4750    5.3650    1.3640 H   0  0  0  0  0
  -15.6030    6.9060    1.1810 H   0  0  0  0  0
   14.6530    4.7120    1.6130 H   0  0  0  0  0
   15.6980    4.5520    0.1810 H   0  0  0  0  0
   -5.4230   -1.8110    4.6250 H   0  0  0  0  0
   -4.4340   -0.6060    3.7670 H   0  0  0  0  0
   -5.9410   -1.2060    3.0330 H   0  0  0  0  0
  -17.0150    7.4720   -0.7770 H   0  0  0  0  0
  -17.8870    5.9310   -0.5940 H   0  0  0  0  0
   14.4030    6.3310   -0.9630 H   0  0  0  0  0
   13.3570    6.4900    0.4690 H   0  0  0  0  0
  -18.6160    6.6140    1.6760 H   0  0  0  0  0
  -17.7440    8.1550    1.4930 H   0  0  0  0  0
  -19.1440    7.7950    0.4530 H   0  0  0  0  0
   15.3290    7.1060    1.8400 H   0  0  0  0  0
   16.3750    6.9470    0.4080 H   0  0  0  0  0
   15.0790    8.7250   -0.7360 H   0  0  0  0  0
   14.0340    8.8840    0.6960 H   0  0  0  0  0
   15.8100   10.6150    0.6930 H   0  0  0  0  0
   16.0060    9.5010    2.0670 H   0  0  0  0  0
   17.0510    9.3410    0.6350 H   0  0  0  0  0
   -3.6270   -2.1290   -0.5050 H   0  0  0  0  0
   -2.7550   -0.5880   -0.6890 H   0  0  0  0  0
   -4.1670   -0.0220   -2.6470 H   0  0  0  0  0
   -5.0390   -1.5620   -2.4630 H   0  0  0  0  0
   -5.7680   -0.8800   -0.1940 H   0  0  0  0  0
   -4.8960    0.6610   -0.3770 H   0  0  0  0  0
   -6.3080    1.2270   -2.3350 H   0  0  0  0  0
   -7.1800   -0.3140   -2.1520 H   0  0  0  0  0
   -7.9090    0.3690    0.1180 H   0  0  0  0  0
   -7.0370    1.9100   -0.0650 H   0  0  0  0  0
   -8.4500    2.4760   -2.0230 H   0  0  0  0  0
   -9.3220    0.9350   -1.8400 H   0  0  0  0  0
  -10.0510    1.6180    0.4300 H   0  0  0  0  0
   -9.1790    3.1590    0.2460 H   0  0  0  0  0
  -11.4630    2.1840   -1.5280 H   0  0  0  0  0
  -10.5910    3.7250   -1.7120 H   0  0  0  0  0
    3.7800   -1.0210   -1.5140 H   0  0  0  0  0
    3.5990   -1.7920    0.0800 H   0  0  0  0  0
    5.4240   -3.3750   -0.4770 H   0  0  0  0  0
    5.6050   -2.6050   -2.0720 H   0  0  0  0  0
    6.1510   -0.4520   -0.9690 H   0  0  0  0  0
    5.9690   -1.2220    0.6250 H   0  0  0  0  0
    7.7940   -2.8050    0.0680 H   0  0  0  0  0
    7.9760   -2.0350   -1.5260 H   0  0  0  0  0
    8.5210    0.1180   -0.4230 H   0  0  0  0  0
   10.1650   -2.2360    0.6140 H   0  0  0  0  0
   10.8920    0.6880    0.1220 H   0  0  0  0  0
   10.7110   -0.0830    1.7170 H   0  0  0  0  0
   12.6810   -1.6940    1.0030 H   0  0  0  0  0
   15.0210    2.1580   -0.0460 H   0  0  0  0  0
   12.6810    4.0960    0.2420 H   0  0  0  0  0
    8.3400   -0.6520    1.1710 H   0  0  0  0  0
   10.3470   -1.4650   -0.9800 H   0  0  0  0  0
  1 53  1  0  0  0
  1 54  1  0  0  0
  2 20  1  0  0  0
  2 24  1  0  0  0
  3  9  1  0  0  0
  4  1  1  0  0  0
  4  5  1  0  0  0
  4 43  1  0  0  0
  4 55  1  0  0  0
  5 32  1  0  0  0
  5 56  1  0  0  0
  5 57  1  0  0  0
  6 10  1  0  0  0
  6 58  1  0  0  0
  6 59  1  0  0  0
  7 11  1  0  0  0
  7 60  1  0  0  0
  8  2  1  0  0  0
  8 61  1  0  0  0
  8 62  1  0  0  0
  9  1  1  0  0  0
 10 14  1  0  0  0
 10 63  1  0  0  0
 10 64  1  0  0  0
 11 15  1  0  0  0
 11 65  1  0  0  0
 11 66  1  0  0  0
 12  8  1  0  0  0
 12 67  1  0  0  0
 12 68  1  0  0  0
 13 12  1  0  0  0
 13  3  1  0  0  0
 14 18  1  0  0  0
 14 69  1  0  0  0
 14 70  1  0  0  0
 15 19  1  0  0  0
 15 71  1  0  0  0
 15131  1  0  0  0
 16  2  1  0  0  0
 16 72  1  0  0  0
 16 73  1  0  0  0
 16 74  1  0  0  0
 17  3  1  0  0  0
 18 22  1  0  0  0
 18 75  1  0  0  0
 18 76  1  0  0  0
 19 23  1  0  0  0
 19 77  1  0  0  0
 19132  1  0  0  0
 20 78  1  0  0  0
 20 79  1  0  0  0
 20 80  1  0  0  0
 21  3  2  0  0  0
 22 25  1  0  0  0
 22 81  1  0  0  0
 22 82  1  0  0  0
 23 26  1  0  0  0
 23 83  1  0  0  0
 23 84  1  0  0  0
 24 85  1  0  0  0
 24 86  1  0  0  0
 24 87  1  0  0  0
 25 27  1  0  0  0
 25 88  1  0  0  0
 25 89  1  0  0  0
 26 28  1  0  0  0
 26 90  1  0  0  0
 26 91  1  0  0  0
 27 92  1  0  0  0
 27 93  1  0  0  0
 27 94  1  0  0  0
 28 29  1  0  0  0
 28 95  1  0  0  0
 28 96  1  0  0  0
 29 30  1  0  0  0
 29 97  1  0  0  0
 29 98  1  0  0  0
 30 99  1  0  0  0
 30100  1  0  0  0
 30101  1  0  0  0
 31 33  1  0  0  0
 32 31  1  0  0  0
 33 35  1  0  0  0
 33102  1  0  0  0
 33103  1  0  0  0
 34 31  2  0  0  0
 35 36  1  0  0  0
 35104  1  0  0  0
 35105  1  0  0  0
 36 37  1  0  0  0
 36106  1  0  0  0
 36107  1  0  0  0
 37 38  1  0  0  0
 37108  1  0  0  0
 37109  1  0  0  0
 38 39  1  0  0  0
 38110  1  0  0  0
 38111  1  0  0  0
 39 40  1  0  0  0
 39112  1  0  0  0
 39113  1  0  0  0
 40 41  1  0  0  0
 40114  1  0  0  0
 40115  1  0  0  0
 41  6  1  0  0  0
 41116  1  0  0  0
 41117  1  0  0  0
 42 44  1  0  0  0
 42 45  2  0  0  0
 43 42  1  0  0  0
 44 46  1  0  0  0
 44118  1  0  0  0
 44119  1  0  0  0
 46 47  1  0  0  0
 46120  1  0  0  0
 46121  1  0  0  0
 47 48  1  0  0  0
 47122  1  0  0  0
 47123  1  0  0  0
 48124  1  0  0  0
 48125  1  0  0  0
 49 48  1  0  0  0
 49 50  1  0  0  0
 49126  1  0  0  0
 49133  1  0  0  0
 50127  1  0  0  0
 50134  1  0  0  0
 51 50  1  0  0  0
 51 52  1  0  0  0
 51128  1  0  0  0
 51129  1  0  0  0
 52  7  2  0  0  0
 52130  1  0  0  0
M  CHG  1   2   1
M  CHG  1  17  -1
M  END
$$$$
