LNR
  CCTOOLS-1004241128

 23 23  0  0  1  0  0  0  0  0999 V2000
   -2.6580   -1.8170   -0.2170 O   0  0  0  0  0
   -1.7760   -0.7860   -0.1240 C   0  0  0  0  0
   -0.4240   -1.0080   -0.3330 C   0  0  0  0  0
   -2.2300    0.4950    0.1760 C   0  0  0  0  0
   -3.5560    0.7190    0.3770 O   0  0  0  0  0
   -1.3270    1.5420    0.2700 C   0  0  0  0  0
    0.0210    1.3130    0.0660 C   0  0  0  0  0
    0.4710    0.0420   -0.2370 C   0  0  0  0  0
    1.9410   -0.2010   -0.4650 C   0  0  0  0  0
    2.5180    0.9380   -1.1070 O   0  0  0  0  0
    2.6330   -0.4350    0.8790 C   0  0  0  0  0
    4.0660   -0.6720    0.6570 N   0  0  0  0  0
   -3.0150   -1.9500   -1.1060 H   0  0  0  0  0
   -0.0700   -2.0000   -0.5700 H   0  0  0  0  0
   -3.8370    0.6180    1.2970 H   0  0  0  0  0
   -1.6770    2.5370    0.5020 H   0  0  0  0  0
    0.7240    2.1300    0.1390 H   0  0  0  0  0
    2.0700   -1.0790   -1.0980 H   0  0  0  0  0
    2.4400    1.7570   -0.5990 H   0  0  0  0  0
    2.5040    0.4430    1.5120 H   0  0  0  0  0
    2.1930   -1.3040    1.3680 H   0  0  0  0  0
    4.4840    0.0920    0.1470 H   0  0  0  0  0
    4.5460   -0.8290    1.5310 H   0  0  0  0  0
  1 13  1  0  0  0
  2  1  1  0  0  0
  2  4  1  0  0  0
  3  2  2  0  0  0
  3 14  1  0  0  0
  4  5  1  0  0  0
  5 15  1  0  0  0
  6  4  2  0  0  0
  6 16  1  0  0  0
  7  6  1  0  0  0
  7 17  1  0  0  0
  8  3  1  0  0  0
  8  7  2  0  0  0
  9  8  1  0  0  0
  9 18  1  0  0  0
 10  9  1  0  0  0
 10 19  1  0  0  0
 11  9  1  0  0  0
 11 20  1  0  0  0
 11 21  1  0  0  0
 12 11  1  0  0  0
 12 22  1  0  0  0
 12 23  1  0  0  0
M  END
$$$$
