LPD
  CCTOOLS-1004241128

 18 18  0  0  1  0  0  0  0  0999 V2000
    1.2230   -0.2320   -0.0520 O   0  0  0  0  0
    0.4290   -0.2150   -0.9890 C   0  0  0  0  0
   -0.2060    0.9180   -1.4420 N   0  0  0  0  0
    0.0500   -1.4580   -1.7340 C   0  0  0  0  0
    0.7650   -2.5860   -1.1380 N   0  0  0  0  0
   -0.1050   -3.1290   -0.1000 C   0  0  0  0  0
   -1.4770   -3.0510   -0.7360 C   0  0  0  0  0
   -1.4320   -1.7820   -1.5790 C   0  0  0  0  0
   -0.0060    1.8020   -0.9870 H   0  0  0  0  0
   -0.8670    0.9040   -2.2120 H   0  0  0  0  0
    0.3310   -1.3210   -2.7820 H   0  0  0  0  0
    1.6730   -2.3170   -0.7650 H   0  0  0  0  0
   -0.0570   -2.5140    0.8060 H   0  0  0  0  0
    0.1700   -4.1550    0.1610 H   0  0  0  0  0
   -2.2800   -3.0240    0.0070 H   0  0  0  0  0
   -1.6470   -3.9190   -1.3850 H   0  0  0  0  0
   -1.9070   -1.9640   -2.5490 H   0  0  0  0  0
   -1.9810   -0.9740   -1.0820 H   0  0  0  0  0
  1  2  2  0  0  0
  2  3  1  0  0  0
  2  4  1  0  0  0
  3  9  1  0  0  0
  3 10  1  0  0  0
  4  5  1  0  0  0
  4  8  1  0  0  0
  4 11  1  0  0  0
  5  6  1  0  0  0
  5 12  1  0  0  0
  6  7  1  0  0  0
  6 13  1  0  0  0
  6 14  1  0  0  0
  7  8  1  0  0  0
  7 15  1  0  0  0
  7 16  1  0  0  0
  8 17  1  0  0  0
  8 18  1  0  0  0
M  END
$$$$
