LPS
  CCTOOLS-0919241031

 76 75  0  0  1  0  0  0  0  0999 V2000
   -1.1730   -0.9210  -12.4830 O   0  0  0  0  0
   -0.5160    0.1350  -11.9790 C   0  0  0  0  0
   -0.7020    1.2370  -12.4370 O   0  0  0  0  0
    0.4540   -0.0540  -10.8420 C   0  0  0  0  0
    1.5140    0.9590  -10.9290 N   0  0  0  0  0
   -0.2840    0.0940   -9.5100 C   0  0  0  0  0
    0.6350   -0.0840   -8.4320 O   0  0  0  0  0
   -0.2050    0.0830   -7.0700 P   0  0  0  0  0
   -0.8080    1.4340   -7.0260 O   0  0  0  0  0
   -1.3700   -1.0260   -7.0170 O   0  0  0  0  0
    0.7750   -0.1070   -5.8070 O   0  0  0  0  0
   -0.0250    0.0520   -4.6340 C   0  0  0  0  0
    0.8490   -0.1170   -3.3910 C   0  0  0  0  0
    1.4330   -1.4210   -3.3950 O   0  0  0  0  0
   -0.0070    0.0540   -2.1360 C   0  0  0  0  0
    0.8100   -0.1040   -0.9750 O   0  0  0  0  0
   -0.0430    0.0650    0.1570 C   0  0  0  0  0
   -1.0780   -0.9190    0.1270 O   0  0  0  0  0
    0.7740   -0.0920    1.4410 C   0  0  0  0  0
   -0.1390    0.0890    2.6540 C   0  0  0  0  0
    0.6780   -0.0680    3.9370 C   0  0  0  0  0
   -0.2360    0.1130    5.1510 C   0  0  0  0  0
    0.5810   -0.0450    6.4340 C   0  0  0  0  0
   -0.3320    0.1370    7.6470 C   0  0  0  0  0
    0.4850   -0.0210    8.9300 C   0  0  0  0  0
   -0.4280    0.1610   10.1440 C   0  0  0  0  0
    0.3890    0.0020   11.4270 C   0  0  0  0  0
   -0.5240    0.1850   12.6400 C   0  0  0  0  0
    0.2930    0.0260   13.9230 C   0  0  0  0  0
   -0.6200    0.2090   15.1370 C   0  0  0  0  0
    0.1970    0.0500   16.4200 C   0  0  0  0  0
   -0.7160    0.2320   17.6330 C   0  0  0  0  0
   -1.7950   -0.8000  -13.2130 H   0  0  0  0  0
    0.8960   -1.0480  -10.9030 H   0  0  0  0  0
    1.0610    1.8590  -10.8680 H   0  0  0  0  0
    2.0770    0.8620  -10.0980 H   0  0  0  0  0
   -1.0700   -0.6570   -9.4460 H   0  0  0  0  0
   -0.7260    1.0880   -9.4490 H   0  0  0  0  0
   -0.9350   -1.8890   -7.0480 H   0  0  0  0  0
   -0.4710    1.0470   -4.6310 H   0  0  0  0  0
   -0.8150   -0.6980   -4.6280 H   0  0  0  0  0
    1.6390    0.6340   -3.3970 H   0  0  0  0  0
    0.7030   -2.0540   -3.3890 H   0  0  0  0  0
   -0.4530    1.0490   -2.1330 H   0  0  0  0  0
   -0.7970   -0.6970   -2.1300 H   0  0  0  0  0
   -0.4880    1.0600    0.1310 H   0  0  0  0  0
   -0.6420   -1.7820    0.1520 H   0  0  0  0  0
    1.2190   -1.0870    1.4670 H   0  0  0  0  0
    1.5630    0.6580    1.4640 H   0  0  0  0  0
   -0.5840    1.0840    2.6270 H   0  0  0  0  0
   -0.9280   -0.6620    2.6310 H   0  0  0  0  0
    1.1230   -1.0630    3.9640 H   0  0  0  0  0
    1.4670    0.6820    3.9600 H   0  0  0  0  0
   -0.6800    1.1080    5.1240 H   0  0  0  0  0
   -1.0250   -0.6380    5.1270 H   0  0  0  0  0
    1.0260   -1.0390    6.4600 H   0  0  0  0  0
    1.3700    0.7060    6.4570 H   0  0  0  0  0
   -0.7770    1.1320    7.6200 H   0  0  0  0  0
   -1.1210   -0.6140    7.6240 H   0  0  0  0  0
    0.9300   -1.0150    8.9570 H   0  0  0  0  0
    1.2740    0.7300    8.9530 H   0  0  0  0  0
   -0.8730    1.1560   10.1170 H   0  0  0  0  0
   -1.2170   -0.5900   10.1200 H   0  0  0  0  0
    0.8340   -0.9920   11.4530 H   0  0  0  0  0
    1.1780    0.7540   11.4500 H   0  0  0  0  0
   -0.9690    1.1790   12.6130 H   0  0  0  0  0
   -1.3130   -0.5660   12.6170 H   0  0  0  0  0
    0.7380   -0.9680   13.9500 H   0  0  0  0  0
    1.0820    0.7780   13.9470 H   0  0  0  0  0
   -1.0650    1.2030   15.1100 H   0  0  0  0  0
   -1.4090   -0.5420   15.1130 H   0  0  0  0  0
    0.6420   -0.9440   16.4460 H   0  0  0  0  0
    0.9860    0.8020   16.4430 H   0  0  0  0  0
   -0.1340    0.1190   18.5470 H   0  0  0  0  0
   -1.1610    1.2270   17.6060 H   0  0  0  0  0
   -1.5050   -0.5180   17.6100 H   0  0  0  0  0
  1  2  1  0  0  0
  1 33  1  0  0  0
  2  3  2  0  0  0
  2  4  1  0  0  0
  4  5  1  0  0  0
  4  6  1  0  0  0
  4 34  1  0  0  0
  5 35  1  0  0  0
  5 36  1  0  0  0
  6  7  1  0  0  0
  6 37  1  0  0  0
  6 38  1  0  0  0
  7  8  1  0  0  0
  8  9  2  0  0  0
  8 10  1  0  0  0
  8 11  1  0  0  0
 10 39  1  0  0  0
 11 12  1  0  0  0
 12 13  1  0  0  0
 12 40  1  0  0  0
 12 41  1  0  0  0
 13 14  1  0  0  0
 13 15  1  0  0  0
 13 42  1  0  0  0
 14 43  1  0  0  0
 15 16  1  0  0  0
 15 44  1  0  0  0
 15 45  1  0  0  0
 16 17  1  0  0  0
 17 18  1  0  0  0
 17 19  1  0  0  0
 17 46  1  0  0  0
 18 47  1  0  0  0
 19 20  1  0  0  0
 19 48  1  0  0  0
 19 49  1  0  0  0
 20 21  1  0  0  0
 20 50  1  0  0  0
 20 51  1  0  0  0
 21 22  1  0  0  0
 21 52  1  0  0  0
 21 53  1  0  0  0
 22 23  1  0  0  0
 22 54  1  0  0  0
 22 55  1  0  0  0
 23 24  1  0  0  0
 23 56  1  0  0  0
 23 57  1  0  0  0
 24 25  1  0  0  0
 24 58  1  0  0  0
 24 59  1  0  0  0
 25 26  1  0  0  0
 25 60  1  0  0  0
 25 61  1  0  0  0
 26 27  1  0  0  0
 26 62  1  0  0  0
 26 63  1  0  0  0
 27 28  1  0  0  0
 27 64  1  0  0  0
 27 65  1  0  0  0
 28 29  1  0  0  0
 28 66  1  0  0  0
 28 67  1  0  0  0
 29 30  1  0  0  0
 29 68  1  0  0  0
 29 69  1  0  0  0
 30 31  1  0  0  0
 30 70  1  0  0  0
 30 71  1  0  0  0
 31 32  1  0  0  0
 31 72  1  0  0  0
 31 73  1  0  0  0
 32 74  1  0  0  0
 32 75  1  0  0  0
 32 76  1  0  0  0
M  END
$$$$
