LSN
  CCTOOLS-0919241031

 53 56  0  0  0  0  0  0  0  0999 V2000
   -4.3000   -2.2230   -2.3910 CL  0  0  0  0  0
   -3.5570   -1.1730   -1.2250 C   0  0  0  0  0
   -2.9400   -1.5580   -0.0910 C   0  0  0  0  0
   -2.7650   -2.9720    0.4010 C   0  0  0  0  0
   -3.8780   -3.3310    1.2220 O   0  0  0  0  0
   -3.4910    0.1650   -1.2990 N   0  0  0  0  0
   -2.8620    0.6240   -0.2510 C   0  0  0  0  0
   -2.5820    2.0760    0.0390 C   0  0  0  0  0
   -3.7400    2.6680    0.8450 C   0  0  0  0  0
   -3.4550    4.1420    1.1390 C   0  0  0  0  0
   -4.6130    4.7340    1.9450 C   0  0  0  0  0
   -2.5010   -0.4180    0.5280 N   0  0  0  0  0
   -1.7720   -0.3430    1.7970 C   0  0  0  0  0
   -0.2900   -0.4090    1.5300 C   0  0  0  0  0
    0.4240    0.7560    1.3160 C   0  0  0  0  0
    1.7810    0.7010    1.0700 C   0  0  0  0  0
    0.3510   -1.6350    1.5050 C   0  0  0  0  0
    1.7080   -1.7020    1.2610 C   0  0  0  0  0
    2.4320   -0.5310    1.0380 C   0  0  0  0  0
    3.8890   -0.5970    0.7750 C   0  0  0  0  0
    4.7200   -1.3290    1.6190 C   0  0  0  0  0
    6.0770   -1.3880    1.3700 C   0  0  0  0  0
    6.6190   -0.7210    0.2850 C   0  0  0  0  0
    5.8090    0.0100   -0.5610 C   0  0  0  0  0
    4.4380    0.0750   -0.3280 C   0  0  0  0  0
    3.5640    0.8590   -1.2340 C   0  0  0  0  0
    2.2360    1.0140   -1.1300 N   0  0  0  0  0
    3.9420    1.5440   -2.2960 N   0  0  0  0  0
    2.8910    2.0830   -2.8120 N   0  0  0  0  0
    1.8610    1.7690   -2.1060 N   0  0  0  0  0
   -2.7090   -3.6490   -0.4520 H   0  0  0  0  0
   -1.8460   -3.0430    0.9820 H   0  0  0  0  0
   -3.8320   -4.2310    1.5750 H   0  0  0  0  0
   -1.6590    2.1600    0.6130 H   0  0  0  0  0
   -2.4770    2.6200   -0.9000 H   0  0  0  0  0
   -4.6620    2.5840    0.2710 H   0  0  0  0  0
   -3.8440    2.1240    1.7830 H   0  0  0  0  0
   -2.5320    4.2270    1.7130 H   0  0  0  0  0
   -3.3500    4.6860    0.2010 H   0  0  0  0  0
   -4.4100    5.7840    2.1550 H   0  0  0  0  0
   -5.5360    4.6500    1.3710 H   0  0  0  0  0
   -4.7180    4.1900    2.8840 H   0  0  0  0  0
   -2.0090    0.5960    2.2970 H   0  0  0  0  0
   -2.0640   -1.1780    2.4330 H   0  0  0  0  0
   -0.0810    1.7100    1.3400 H   0  0  0  0  0
    2.3380    1.6110    0.9020 H   0  0  0  0  0
   -0.2110   -2.5410    1.6770 H   0  0  0  0  0
    2.2070   -2.6590    1.2420 H   0  0  0  0  0
    4.3040   -1.8510    2.4670 H   0  0  0  0  0
    6.7190   -1.9570    2.0260 H   0  0  0  0  0
    7.6810   -0.7730    0.0990 H   0  0  0  0  0
    6.2380    0.5290   -1.4060 H   0  0  0  0  0
    2.8800    2.6430   -3.6030 H   0  0  0  0  0
  1  2  1  0  0  0
  2  6  1  0  0  0
  3  2  2  0  0  0
  3 12  1  0  0  0
  4  3  1  0  0  0
  4 31  1  0  0  0
  4 32  1  0  0  0
  5  4  1  0  0  0
  5 33  1  0  0  0
  6  7  2  0  0  0
  7  8  1  0  0  0
  8  9  1  0  0  0
  8 34  1  0  0  0
  8 35  1  0  0  0
  9 10  1  0  0  0
  9 36  1  0  0  0
  9 37  1  0  0  0
 10 11  1  0  0  0
 10 38  1  0  0  0
 10 39  1  0  0  0
 11 40  1  0  0  0
 11 41  1  0  0  0
 11 42  1  0  0  0
 12 13  1  0  0  0
 12  7  1  0  0  0
 13 43  1  0  0  0
 13 44  1  0  0  0
 14 13  1  0  0  0
 15 14  1  0  0  0
 15 45  1  0  0  0
 16 15  2  0  0  0
 16 46  1  0  0  0
 17 14  2  0  0  0
 17 47  1  0  0  0
 18 17  1  0  0  0
 18 48  1  0  0  0
 19 18  2  0  0  0
 19 16  1  0  0  0
 20 21  2  0  0  0
 20 19  1  0  0  0
 21 49  1  0  0  0
 22 21  1  0  0  0
 22 50  1  0  0  0
 23 22  2  0  0  0
 23 51  1  0  0  0
 24 23  1  0  0  0
 24 25  2  0  0  0
 24 52  1  0  0  0
 25 20  1  0  0  0
 26 28  2  0  0  0
 26 25  1  0  0  0
 27 26  1  0  0  0
 29 28  1  0  0  0
 29 53  1  0  0  0
 30 27  2  0  0  0
 30 29  1  0  0  0
M  END
$$$$
