ME6
  CCTOOLS-0919241034

 38 39  0  0  1  0  0  0  0  0999 V2000
   -3.2720   -0.7540    1.8440 O   0  0  0  0  0
   -3.2600   -0.1380    0.7920 C   0  0  0  0  0
   -4.2970    0.6360    0.4740 N   0  3  0  0  0
   -5.4340    0.7370    1.3910 C   0  0  0  0  0
   -4.3100    1.3170   -0.6650 C   0  0  0  0  0
   -5.3850    2.1130   -0.9830 N   0  0  0  0  0
   -3.2140    1.2190   -1.5480 C   0  0  0  0  0
   -2.1680    0.4290   -1.2100 C   0  0  0  0  0
   -2.1980   -0.2470   -0.0270 N   0  0  0  0  0
   -1.0700   -1.1010    0.3530 C   0  0  0  0  0
    0.1700   -0.3650    0.2650 O   0  0  0  0  0
   -0.9130   -2.2640   -0.6520 C   0  0  0  0  0
    0.6150   -2.4460   -0.7800 C   0  0  0  0  0
    1.0020   -3.7530   -0.3510 O   0  0  0  0  0
    1.2020   -1.3700    0.1640 C   0  0  0  0  0
    2.4740   -0.7680   -0.4360 C   0  0  0  0  0
    3.0220    0.1910    0.4710 O   0  0  0  0  0
    4.3660    1.0220    0.1630 P   0  0  0  0  0
    4.1200    1.9910   -1.0990 O   0  0  0  0  0
    4.7570    1.9060    1.4500 O   0  0  0  0  0
   -5.2660    1.5570    2.0890 H   0  0  0  0  0
   -6.3450    0.9240    0.8220 H   0  0  0  0  0
   -5.5380   -0.1960    1.9460 H   0  0  0  0  0
   -6.1370    2.1780   -0.3730 H   0  0  0  0  0
   -3.2100    1.7670   -2.4780 H   0  0  0  0  0
   -1.3180    0.3370   -1.8700 H   0  0  0  0  0
   -1.2110   -1.4880    1.3620 H   0  0  0  0  0
   -1.3750   -3.1710   -0.2610 H   0  0  0  0  0
   -1.3510   -1.9990   -1.6140 H   0  0  0  0  0
    0.9360   -2.2720   -1.8080 H   0  0  0  0  0
    0.6130   -4.4690   -0.8720 H   0  0  0  0  0
    1.4110   -1.8000    1.1440 H   0  0  0  0  0
    3.2030   -1.5590   -0.6120 H   0  0  0  0  0
    2.2340   -0.2790   -1.3800 H   0  0  0  0  0
    3.4100    2.6340   -0.9690 H   0  0  0  0  0
    5.5590    2.4350    1.3350 H   0  0  0  0  0
    5.4680    0.0830   -0.1440 O   0  0  0  0  0
   -5.3920    2.6100   -1.8160 H   0  0  0  0  0
  1  2  2  0  0  0
  2  9  1  0  0  0
  2  3  1  0  0  0
  3  5  2  0  0  0
  4  3  1  0  0  0
  4 21  1  0  0  0
  4 22  1  0  0  0
  4 23  1  0  0  0
  5  6  1  0  0  0
  5  7  1  0  0  0
  6 24  1  0  0  0
  6 38  1  0  0  0
  7 25  1  0  0  0
  8  7  2  0  0  0
  8 26  1  0  0  0
  9  8  1  0  0  0
 10  9  1  0  0  0
 10 27  1  0  0  0
 11 10  1  0  0  0
 12 10  1  0  0  0
 12 28  1  0  0  0
 12 29  1  0  0  0
 13 12  1  0  0  0
 13 14  1  0  0  0
 13 30  1  0  0  0
 14 31  1  0  0  0
 15 11  1  0  0  0
 15 13  1  0  0  0
 15 32  1  0  0  0
 16 15  1  0  0  0
 16 33  1  0  0  0
 16 34  1  0  0  0
 17 16  1  0  0  0
 18 17  1  0  0  0
 18 19  1  0  0  0
 18 37  2  0  0  0
 19 35  1  0  0  0
 20 18  1  0  0  0
 20 36  1  0  0  0
M  CHG  1   3   1
M  END
$$$$
