N7P
  CCTOOLS-1004241122

 22 22  0  0  1  0  0  0  0  0999 V2000
   -2.7220    0.9970   -0.3020 O   0  0  0  0  0
   -1.5210    0.6450    0.1840 C   0  0  0  0  0
   -1.1150    1.1400    1.2090 O   0  0  0  0  0
   -0.6800   -0.3690   -0.5480 C   0  0  0  0  0
    0.7180   -0.2750   -0.1020 N   0  0  0  0  0
    1.5120    0.8070   -0.2290 C   0  0  0  0  0
    1.0840    1.8150   -0.7500 O   0  0  0  0  0
    2.9310    0.7630    0.2750 C   0  0  0  0  0
    1.1070   -1.5590    0.5080 C   0  0  0  0  0
    0.1500   -2.6030   -0.1200 C   0  0  0  0  0
   -1.1730   -1.7940   -0.2220 C   0  0  0  0  0
   -3.2240    1.6510    0.2030 H   0  0  0  0  0
   -0.7390   -0.1930   -1.6220 H   0  0  0  0  0
    3.1330   -0.2170    0.7070 H   0  0  0  0  0
    3.6170    0.9440   -0.5530 H   0  0  0  0  0
    3.0700    1.5320    1.0360 H   0  0  0  0  0
    2.1420   -1.7970    0.2630 H   0  0  0  0  0
    0.9730   -1.5210    1.5890 H   0  0  0  0  0
    0.5000   -2.9050   -1.1070 H   0  0  0  0  0
    0.0300   -3.4680    0.5320 H   0  0  0  0  0
   -1.7070   -1.8080    0.7280 H   0  0  0  0  0
   -1.8010   -2.1820   -1.0240 H   0  0  0  0  0
  1 12  1  0  0  0
  2  3  2  0  0  0
  2  1  1  0  0  0
  4  2  1  0  0  0
  4 13  1  0  0  0
  5  4  1  0  0  0
  5  6  1  0  0  0
  6  7  2  0  0  0
  8  6  1  0  0  0
  8 14  1  0  0  0
  8 15  1  0  0  0
  8 16  1  0  0  0
  9  5  1  0  0  0
  9 17  1  0  0  0
  9 18  1  0  0  0
 10 11  1  0  0  0
 10  9  1  0  0  0
 10 19  1  0  0  0
 10 20  1  0  0  0
 11  4  1  0  0  0
 11 21  1  0  0  0
 11 22  1  0  0  0
M  END
$$$$
