NFI
  CCTOOLS-0919241039

 43 45  0  0  0  0  0  0  0  0999 V2000
   -0.0300   -2.1170   -0.3540 N   0  0  0  0  0
    5.4000    1.6160    0.3700 C   0  0  0  0  0
    5.7500    0.3070    0.0230 C   0  0  0  0  0
    7.0990   -0.0340   -0.1190 C   0  0  0  0  0
    4.7050   -0.7060   -0.1910 C   0  0  0  0  0
    3.2520   -0.3350   -0.0370 C   0  0  0  0  0
    0.9280   -1.1890   -0.1580 C   0  0  0  0  0
   -3.5630   -2.4630    0.6270 C   0  0  0  0  0
   -3.1820   -0.2180   -0.1780 C   0  0  0  0  0
   -5.2470    0.6590    0.0580 C   0  0  0  0  0
   -6.4000    1.5670    0.0580 C   0  0  0  0  0
    8.0730    0.9210    0.0830 C   0  0  0  0  0
    7.7190    2.2140    0.4270 C   0  0  0  0  0
    6.3860    2.5590    0.5700 C   0  0  0  0  0
    5.0120   -1.8400   -0.4920 O   0  0  0  0  0
    2.3800   -1.5610   -0.3120 C   0  0  0  0  0
    0.6210   -0.0550    0.1430 O   0  0  0  0  0
   -1.3740   -1.7970   -0.1220 C   0  0  0  0  0
   -2.2400   -2.7610    0.3920 C   0  0  0  0  0
   -4.0520   -1.1920    0.3470 C   0  0  0  0  0
   -1.8410   -0.5290   -0.4130 C   0  0  0  0  0
   -5.2700   -0.6260    0.4710 O   0  0  0  0  0
   -3.9940    0.9850   -0.3560 C   0  0  0  0  0
   -3.5350    2.3170   -0.8920 C   0  0  0  0  0
   -7.6000    1.1330    0.4930 O   0  0  0  0  0
   -6.2730    2.7110   -0.3340 O   0  0  0  0  0
    0.2110   -3.0060   -0.6600 H   0  0  0  0  0
    4.3610    1.8880    0.4770 H   0  0  0  0  0
    7.3770   -1.0430   -0.3870 H   0  0  0  0  0
    3.0740    0.0180    0.9790 H   0  0  0  0  0
    3.0020    0.4560   -0.7450 H   0  0  0  0  0
   -4.2240   -3.2190    1.0260 H   0  0  0  0  0
    9.1150    0.6590   -0.0260 H   0  0  0  0  0
    8.4860    2.9570    0.5850 H   0  0  0  0  0
    6.1170    3.5710    0.8340 H   0  0  0  0  0
    2.5590   -1.9130   -1.3280 H   0  0  0  0  0
    2.6300   -2.3510    0.3960 H   0  0  0  0  0
   -1.8690   -3.7520    0.6090 H   0  0  0  0  0
   -1.1720    0.2170   -0.8160 H   0  0  0  0  0
   -3.1880    2.9400   -0.0680 H   0  0  0  0  0
   -2.7200    2.1620   -1.5990 H   0  0  0  0  0
   -4.3650    2.8110   -1.3970 H   0  0  0  0  0
   -8.3300    1.7670    0.4740 H   0  0  0  0  0
  1 27  1  0  0  0
  2 14  2  0  0  0
  2 28  1  0  0  0
  3  4  2  0  0  0
  3  2  1  0  0  0
  4 12  1  0  0  0
  4 29  1  0  0  0
  5  3  1  0  0  0
  6  5  1  0  0  0
  6 30  1  0  0  0
  6 31  1  0  0  0
  7  1  1  0  0  0
  7 16  1  0  0  0
  8 19  2  0  0  0
  8 32  1  0  0  0
  9 20  2  0  0  0
  9 21  1  0  0  0
 10 23  2  0  0  0
 10 22  1  0  0  0
 11 25  1  0  0  0
 11 10  1  0  0  0
 12 13  2  0  0  0
 12 33  1  0  0  0
 13 34  1  0  0  0
 14 13  1  0  0  0
 14 35  1  0  0  0
 15  5  2  0  0  0
 16  6  1  0  0  0
 16 36  1  0  0  0
 16 37  1  0  0  0
 17  7  2  0  0  0
 18 19  1  0  0  0
 18  1  1  0  0  0
 19 38  1  0  0  0
 20  8  1  0  0  0
 21 18  2  0  0  0
 21 39  1  0  0  0
 22 20  1  0  0  0
 23  9  1  0  0  0
 24 23  1  0  0  0
 24 40  1  0  0  0
 24 41  1  0  0  0
 24 42  1  0  0  0
 25 43  1  0  0  0
 26 11  2  0  0  0
M  END
$$$$
