NOS
  CCTOOLS-0919241040

 31 33  0  0  1  0  0  0  0  0999 V2000
   -0.3910   -0.4400   -0.1050 N   0  0  0  0  0
   -1.6210    0.1380   -0.2520 C   0  0  0  0  0
   -2.0480    1.3370   -0.6750 N   0  0  0  0  0
   -3.3180    1.6280   -0.7130 C   0  0  0  0  0
   -4.2730    0.7440   -0.3290 N   0  0  0  0  0
   -3.9290   -0.4870    0.1120 C   0  0  0  0  0
   -4.7800   -1.2880    0.4600 O   0  0  0  0  0
   -2.5530   -0.8200    0.1590 C   0  0  0  0  0
   -1.8590   -1.9210    0.5310 N   0  0  0  0  0
   -0.5850   -1.7000    0.3770 C   0  0  0  0  0
    4.1640   -1.1460    0.3080 C   0  0  0  0  0
    4.4740   -2.2130   -0.5910 O   0  0  0  0  0
    3.1880   -0.1790   -0.3650 C   0  0  0  0  0
    1.9220   -0.8290   -0.5730 O   0  0  0  0  0
    0.9000    0.1790   -0.4150 C   0  0  0  0  0
    1.4050    1.0200    0.7850 C   0  0  0  0  0
    0.8700    2.3440    0.7400 O   0  0  0  0  0
    2.9380    1.0350    0.5510 C   0  0  0  0  0
    3.3330    2.2450   -0.0980 O   0  0  0  0  0
   -3.6200    2.6050   -1.0600 H   0  0  0  0  0
   -5.2090    0.9970   -0.3700 H   0  0  0  0  0
    0.1990   -2.4110    0.5930 H   0  0  0  0  0
    3.7080   -1.5530    1.2110 H   0  0  0  0  0
    5.0790   -0.6150    0.5710 H   0  0  0  0  0
    5.0900   -2.8650   -0.2300 H   0  0  0  0  0
    3.5950    0.1540   -1.3190 H   0  0  0  0  0
    0.8230    0.7960   -1.3100 H   0  0  0  0  0
    1.1590    0.5350    1.7300 H   0  0  0  0  0
    1.1570    2.9090    1.4710 H   0  0  0  0  0
    3.4700    0.9180    1.4950 H   0  0  0  0  0
    4.2820    2.3080   -0.2700 H   0  0  0  0  0
  1 10  1  0  0  0
  1 15  1  0  0  0
  2  1  1  0  0  0
  3  2  1  0  0  0
  4  3  2  0  0  0
  4 20  1  0  0  0
  5  4  1  0  0  0
  5  6  1  0  0  0
  5 21  1  0  0  0
  6  8  1  0  0  0
  7  6  2  0  0  0
  8  2  2  0  0  0
  8  9  1  0  0  0
  9 10  2  0  0  0
 10 22  1  0  0  0
 11 12  1  0  0  0
 11 23  1  0  0  0
 11 24  1  0  0  0
 12 25  1  0  0  0
 13 11  1  0  0  0
 13 26  1  0  0  0
 14 13  1  0  0  0
 15 16  1  0  0  0
 15 14  1  0  0  0
 15 27  1  0  0  0
 16 18  1  0  0  0
 16 28  1  0  0  0
 17 16  1  0  0  0
 17 29  1  0  0  0
 18 19  1  0  0  0
 18 13  1  0  0  0
 18 30  1  0  0  0
 19 31  1  0  0  0
M  END
$$$$
