OGA
  CCTOOLS-0919241044

 15 14  0  0  0  0  0  0  0  0999 V2000
    0.3590    0.0000   -2.3110 C   0  0  0  0  0
   -0.4910    0.0000   -1.0830 C   0  0  0  0  0
   -0.7490    0.0000    1.3390 C   0  0  0  0  0
    0.1320    0.0000    2.5610 C   0  0  0  0  0
    1.5670    0.0000   -2.2120 O   0  0  0  0  0
   -0.2150    0.0000   -3.5280 O   0  0  0  0  0
   -1.7010    0.0000   -1.1820 O   0  0  0  0  0
   -0.4170    0.0000    3.7860 O   0  0  0  0  0
    0.0840    0.0000    0.1350 N   0  0  0  0  0
    1.3340    0.0000    2.4390 O   0  0  0  0  0
   -1.3790   -0.8900    1.3460 H   0  0  0  0  0
   -1.3790    0.8900    1.3460 H   0  0  0  0  0
    0.3340    0.0000   -4.3230 H   0  0  0  0  0
    0.1480    0.0000    4.5700 H   0  0  0  0  0
    1.0500    0.0000    0.2140 H   0  0  0  0  0
  1  2  1  0  0  0
  1  5  2  0  0  0
  1  6  1  0  0  0
  2  7  2  0  0  0
  2  9  1  0  0  0
  3  4  1  0  0  0
  3  9  1  0  0  0
  3 11  1  0  0  0
  3 12  1  0  0  0
  4  8  1  0  0  0
  4 10  2  0  0  0
  6 13  1  0  0  0
  8 14  1  0  0  0
  9 15  1  0  0  0
M  END
$$$$
