OJX
  CCTOOLS-0919241027

 18 18  0  0  0  0  0  0  0  0999 V2000
   -1.7880    0.5630    0.0080 C   0  0  0  0  0
   -0.0620   -0.9440    0.0160 C   0  0  0  0  0
    0.8530    0.1070    0.0020 C   0  0  0  0  0
   -0.8800    1.6110   -0.0050 C   0  0  0  0  0
   -3.2670    0.8510    0.0040 C   0  0  0  0  0
    2.3060   -0.1730   -0.0010 C   0  0  0  0  0
   -1.3600   -0.6880    0.0180 N   0  3  0  0  0
    0.4150    1.3650   -0.0070 N   0  0  0  0  0
   -2.2910   -1.7540    0.0300 O   0  0  0  0  0
    2.7040   -1.3210    0.0080 O   0  0  0  0  0
    3.1880    0.8450   -0.0130 O   0  0  0  0  0
    0.2890   -1.9660    0.0230 H   0  0  0  0  0
   -1.2340    2.6310   -0.0130 H   0  0  0  0  0
   -3.6250    0.9280    1.0310 H   0  0  0  0  0
   -3.4530    1.7910   -0.5170 H   0  0  0  0  0
   -3.7930    0.0430   -0.5040 H   0  0  0  0  0
    4.1270    0.6120   -0.0150 H   0  0  0  0  0
   -2.5530   -2.0590   -0.8490 H   0  0  0  0  0
  1  7  2  0  0  0
  1  4  1  0  0  0
  2  3  2  0  0  0
  2 12  1  0  0  0
  3  6  1  0  0  0
  4  8  2  0  0  0
  4 13  1  0  0  0
  5  1  1  0  0  0
  5 14  1  0  0  0
  5 15  1  0  0  0
  5 16  1  0  0  0
  6 10  2  0  0  0
  6 11  1  0  0  0
  7  2  1  0  0  0
  8  3  1  0  0  0
  9  7  1  0  0  0
  9 18  1  0  0  0
 11 17  1  0  0  0
M  CHG  1   7   1
M  END
$$$$
