OKL
  CCTOOLS-0919241027

 30 31  0  0  0  0  0  0  0  0999 V2000
   -1.9820   -1.9860   -0.3910 C   0  0  0  0  0
   -1.9040   -0.5940   -0.1740 C   0  0  0  0  0
   -0.7110   -0.0450    0.2800 C   0  0  0  0  0
   -2.1270    1.5770    0.0560 C   0  0  0  0  0
    6.0360    1.5850   -0.4080 C   0  0  0  0  0
    4.7110    1.0080   -0.9090 C   0  0  0  0  0
    3.8370    0.6270    0.2880 C   0  0  0  0  0
    2.5110    0.0490   -0.2120 C   0  0  0  0  0
    1.6370   -0.3320    0.9840 C   0  0  0  0  0
    0.2510   -2.2080    0.2850 C   0  0  0  0  0
    0.3680   -0.8850    0.5050 N   0  0  0  0  0
   -0.8990   -2.7520   -0.1470 N   0  0  0  0  0
   -0.9010    1.2710    0.4020 N   0  0  0  0  0
   -2.7890    0.4600   -0.3080 N   0  0  0  0  0
    1.2070   -2.9300    0.4940 O   0  0  0  0  0
   -3.0170   -2.4900   -0.7880 O   0  0  0  0  0
   -2.7990    3.1780    0.0640 CL  0  0  0  0  0
    5.8420    2.4710    0.1960 H   0  0  0  0  0
    6.5530    0.8390    0.1960 H   0  0  0  0  0
    6.6590    1.8570   -1.2610 H   0  0  0  0  0
    4.1950    1.7540   -1.5130 H   0  0  0  0  0
    4.9050    0.1220   -1.5130 H   0  0  0  0  0
    4.3530   -0.1190    0.8920 H   0  0  0  0  0
    3.6420    1.5130    0.8920 H   0  0  0  0  0
    1.9950    0.7950   -0.8170 H   0  0  0  0  0
    2.7060   -0.8370   -0.8170 H   0  0  0  0  0
    2.1530   -1.0780    1.5890 H   0  0  0  0  0
    1.4420    0.5540    1.5890 H   0  0  0  0  0
   -0.9480   -3.7100   -0.2950 H   0  0  0  0  0
   -3.7100    0.4050   -0.6080 H   0  0  0  0  0
  1 16  2  0  0  0
  1  2  1  0  0  0
  2 14  1  0  0  0
  3  2  2  0  0  0
  3 13  1  0  0  0
  4 17  1  0  0  0
  5  6  1  0  0  0
  5 18  1  0  0  0
  5 19  1  0  0  0
  5 20  1  0  0  0
  6  7  1  0  0  0
  6 21  1  0  0  0
  6 22  1  0  0  0
  7  8  1  0  0  0
  7 23  1  0  0  0
  7 24  1  0  0  0
  8 25  1  0  0  0
  8 26  1  0  0  0
  9 11  1  0  0  0
  9  8  1  0  0  0
  9 27  1  0  0  0
  9 28  1  0  0  0
 10 12  1  0  0  0
 10 11  1  0  0  0
 11  3  1  0  0  0
 12  1  1  0  0  0
 12 29  1  0  0  0
 13  4  2  0  0  0
 14  4  1  0  0  0
 14 30  1  0  0  0
 15 10  2  0  0  0
M  END
$$$$
