OS9
  CCTOOLS-0919241028

 68 72  0  0  0  0  0  0  0  0999 V2000
    5.4830   -2.1990    2.0920 O   0  0  0  0  0
    6.3350   -2.6780    3.1340 C   0  0  0  0  0
    7.0960    0.5500   -0.5340 C   0  0  0  0  0
    5.7870    0.1330   -0.6950 C   0  0  0  0  0
    7.8640    0.0450    0.4980 C   0  0  0  0  0
    7.3260   -0.8760    1.3780 C   0  0  0  0  0
   -1.5050    3.7720    1.4640 O   0  0  0  0  0
    6.0140   -1.2940    1.2270 C   0  0  0  0  0
    3.9560   -1.2040    0.0250 O   0  0  0  0  0
    2.5260   -0.7870   -3.2940 C   0  0  0  0  0
    1.7870    0.3690   -3.1120 C   0  0  0  0  0
    1.7750    0.9970   -1.8810 C   0  0  0  0  0
    2.5010    0.4730   -0.8280 C   0  0  0  0  0
    0.9700    2.2560   -1.6860 C   0  0  0  0  0
   -0.3660    1.2870    0.0850 C   0  0  0  0  0
   -1.7720    0.7960    0.4410 C   0  0  0  0  0
   -2.7420    1.9730    0.4050 C   0  0  0  0  0
   -2.7040    2.6490   -0.9630 C   0  0  0  0  0
   -1.2680    3.0810   -1.2740 C   0  0  0  0  0
   -2.4090    2.9650    1.4920 C   0  0  0  0  0
   -4.2220    1.7150    2.1690 C   0  0  0  0  0
   -4.2800    0.0940    0.3570 C   0  0  0  0  0
   -5.7600   -0.2830    0.4440 C   0  0  0  0  0
   -5.9300   -1.7370    0.0870 C   0  0  0  0  0
   -6.1470   -2.1050   -1.2280 C   0  0  0  0  0
   -6.3040   -3.4380   -1.5550 C   0  0  0  0  0
   -6.2440   -4.4040   -0.5680 C   0  0  0  0  0
   -6.0260   -4.0360    0.7470 C   0  0  0  0  0
   -5.8650   -2.7030    1.0730 C   0  0  0  0  0
    5.2430   -0.7930    0.1810 C   0  0  0  0  0
    3.2420   -0.6860   -1.0080 C   0  0  0  0  0
    3.2480   -1.3190   -2.2440 C   0  0  0  0  0
   -0.3870    1.9070   -1.2470 N   0  0  0  0  0
   -3.2900    2.8000    2.5010 N   0  0  0  0  0
   -4.1130    1.5110    0.7050 N   0  0  0  0  0
    5.7890   -3.3920    3.7510 H   0  0  0  0  0
    7.2060   -3.1660    2.6960 H   0  0  0  0  0
    6.6610   -1.8400    3.7500 H   0  0  0  0  0
    7.5200    1.2680   -1.2200 H   0  0  0  0  0
    5.1890    0.5290   -1.5020 H   0  0  0  0  0
    8.8870    0.3700    0.6170 H   0  0  0  0  0
    7.9280   -1.2690    2.1840 H   0  0  0  0  0
    2.5330   -1.2760   -4.2560 H   0  0  0  0  0
    1.2200    0.7800   -3.9330 H   0  0  0  0  0
    2.4910    0.9650    0.1330 H   0  0  0  0  0
    1.4480    2.8800   -0.9300 H   0  0  0  0  0
    0.9180    2.8030   -2.6280 H   0  0  0  0  0
   -0.0400    2.0210    0.8220 H   0  0  0  0  0
    0.3240    0.4440    0.0820 H   0  0  0  0  0
   -2.0870    0.0420   -0.2800 H   0  0  0  0  0
   -1.7630    0.3620    1.4410 H   0  0  0  0  0
   -3.0470    1.9490   -1.7250 H   0  0  0  0  0
   -3.3540    3.5240   -0.9550 H   0  0  0  0  0
   -1.2330    3.5390   -2.2630 H   0  0  0  0  0
   -0.9360    3.8030   -0.5280 H   0  0  0  0  0
   -3.9400    0.8030    2.6960 H   0  0  0  0  0
   -5.2400    2.0000    2.4340 H   0  0  0  0  0
   -3.7070   -0.5210    1.0520 H   0  0  0  0  0
   -3.9210   -0.0750   -0.6580 H   0  0  0  0  0
   -6.1190   -0.1130    1.4600 H   0  0  0  0  0
   -6.3330    0.3320   -0.2500 H   0  0  0  0  0
   -6.1940   -1.3500   -1.9990 H   0  0  0  0  0
   -6.4730   -3.7260   -2.5820 H   0  0  0  0  0
   -6.3670   -5.4460   -0.8240 H   0  0  0  0  0
   -5.9800   -4.7910    1.5180 H   0  0  0  0  0
   -5.6910   -2.4160    2.1000 H   0  0  0  0  0
    3.8240   -2.2210   -2.3860 H   0  0  0  0  0
   -3.3050    3.3180    3.3210 H   0  0  0  0  0
  1  2  1  0  0  0
  2 36  1  0  0  0
  2 37  1  0  0  0
  2 38  1  0  0  0
  3  5  2  0  0  0
  3 39  1  0  0  0
  4 30  2  0  0  0
  4  3  1  0  0  0
  4 40  1  0  0  0
  5  6  1  0  0  0
  5 41  1  0  0  0
  6 42  1  0  0  0
  7 20  2  0  0  0
  8  1  1  0  0  0
  8  6  2  0  0  0
  9 30  1  0  0  0
  9 31  1  0  0  0
 10 11  1  0  0  0
 10 43  1  0  0  0
 11 12  2  0  0  0
 11 44  1  0  0  0
 12 14  1  0  0  0
 13 12  1  0  0  0
 13 45  1  0  0  0
 14 33  1  0  0  0
 14 46  1  0  0  0
 14 47  1  0  0  0
 15 16  1  0  0  0
 15 48  1  0  0  0
 15 49  1  0  0  0
 16 50  1  0  0  0
 16 51  1  0  0  0
 17 35  1  0  0  0
 17 20  1  0  0  0
 17 16  1  0  0  0
 18 17  1  0  0  0
 18 52  1  0  0  0
 18 53  1  0  0  0
 19 18  1  0  0  0
 19 33  1  0  0  0
 19 54  1  0  0  0
 19 55  1  0  0  0
 20 34  1  0  0  0
 21 34  1  0  0  0
 21 56  1  0  0  0
 21 57  1  0  0  0
 22 35  1  0  0  0
 22 23  1  0  0  0
 22 58  1  0  0  0
 22 59  1  0  0  0
 23 60  1  0  0  0
 23 61  1  0  0  0
 24 23  1  0  0  0
 24 29  2  0  0  0
 25 24  1  0  0  0
 25 62  1  0  0  0
 26 25  2  0  0  0
 26 27  1  0  0  0
 26 63  1  0  0  0
 27 28  2  0  0  0
 27 64  1  0  0  0
 28 29  1  0  0  0
 28 65  1  0  0  0
 29 66  1  0  0  0
 30  8  1  0  0  0
 31 13  2  0  0  0
 32 10  2  0  0  0
 32 31  1  0  0  0
 32 67  1  0  0  0
 33 15  1  0  0  0
 34 68  1  0  0  0
 35 21  1  0  0  0
M  END
$$$$
