OXF
  CCTOOLS-0919241029

 54 56  0  0  0  0  0  0  0  0999 V2000
    1.6560   -1.4930   -0.7180 C   0  0  0  0  0
    4.6050    1.4060    1.1430 C   0  0  0  0  0
    5.7630    0.7230   -0.8480 C   0  0  0  0  0
    2.8260   -0.8500   -0.3630 C   0  0  0  0  0
    2.4400   -3.5030    0.3260 C   0  0  0  0  0
    4.7630    2.7290    0.7770 C   0  0  0  0  0
    5.4210    3.0500   -0.3950 C   0  0  0  0  0
   -2.1320    1.5130   -0.1830 C   0  0  0  0  0
    3.8070   -1.5340    0.3400 C   0  0  0  0  0
    3.6110   -2.8640    0.6840 C   0  0  0  0  0
    1.4630   -2.8180   -0.3740 C   0  0  0  0  0
    5.1080    0.3990    0.3310 C   0  0  0  0  0
   -1.2450    0.8130   -1.2140 C   0  0  0  0  0
    5.9230    2.0480   -1.2060 C   0  0  0  0  0
   -1.0860   -1.1200    0.2340 C   0  0  0  0  0
   -1.9740   -0.4210    1.2650 C   0  0  0  0  0
   -3.8070    1.1410    1.5270 C   0  0  0  0  0
   -5.0300    1.6700    0.7750 C   0  0  0  0  0
   -6.9180    0.9610   -0.5200 C   0  0  0  0  0
   -7.6070   -0.2850   -1.0790 C   0  0  0  0  0
    0.5880   -0.7490   -1.4760 C   0  0  0  0  0
   -0.3340   -0.1120   -0.5260 N   0  0  0  0  0
   -2.8850    0.5040    0.5760 N   0  0  0  0  0
   -5.7510    0.5740    0.2080 O   0  0  0  0  0
   -8.0840   -1.0900    0.0000 O   0  0  0  0  0
    4.9580   -0.9030    0.6910 O   0  0  0  0  0
    4.0950    1.1560    2.0610 H   0  0  0  0  0
    6.1550   -0.0590   -1.4810 H   0  0  0  0  0
    2.9770    0.1850   -0.6320 H   0  0  0  0  0
    2.2860   -4.5380    0.5940 H   0  0  0  0  0
    4.3720    3.5130    1.4080 H   0  0  0  0  0
    5.5440    4.0840   -0.6790 H   0  0  0  0  0
   -1.5100    2.0920    0.4990 H   0  0  0  0  0
   -2.8290    2.1780   -0.6940 H   0  0  0  0  0
    4.3720   -3.3990    1.2320 H   0  0  0  0  0
    0.5480   -3.3200   -0.6530 H   0  0  0  0  0
   -1.8690    0.2550   -1.9130 H   0  0  0  0  0
   -0.6640    1.5570   -1.7590 H   0  0  0  0  0
    6.4370    2.3010   -2.1220 H   0  0  0  0  0
   -0.3900   -1.7860    0.7440 H   0  0  0  0  0
   -1.7090   -1.7000   -0.4480 H   0  0  0  0  0
   -2.5550   -1.1650    1.8100 H   0  0  0  0  0
   -1.3500    0.1360    1.9640 H   0  0  0  0  0
   -3.3010    1.9680    2.0250 H   0  0  0  0  0
   -4.1250    0.4090    2.2700 H   0  0  0  0  0
   -5.6750    2.2110    1.4670 H   0  0  0  0  0
   -4.7050    2.3420   -0.0190 H   0  0  0  0  0
   -6.6330    1.6180   -1.3410 H   0  0  0  0  0
   -7.6030    1.4880    0.1450 H   0  0  0  0  0
   -8.4460    0.0150   -1.7080 H   0  0  0  0  0
   -6.8950   -0.8580   -1.6730 H   0  0  0  0  0
    1.0510    0.0150   -2.1010 H   0  0  0  0  0
    0.0360   -1.4470   -2.1060 H   0  0  0  0  0
   -8.5330   -1.8990   -0.2810 H   0  0  0  0  0
  1 11  2  0  0  0
  1  4  1  0  0  0
  2 12  2  0  0  0
  2 27  1  0  0  0
  3 28  1  0  0  0
  4  9  2  0  0  0
  4 29  1  0  0  0
  5 10  2  0  0  0
  5 30  1  0  0  0
  6  7  2  0  0  0
  6  2  1  0  0  0
  6 31  1  0  0  0
  7 14  1  0  0  0
  7 32  1  0  0  0
  8 13  1  0  0  0
  8 23  1  0  0  0
  8 33  1  0  0  0
  8 34  1  0  0  0
  9 10  1  0  0  0
  9 26  1  0  0  0
 10 35  1  0  0  0
 11  5  1  0  0  0
 11 36  1  0  0  0
 12  3  1  0  0  0
 12 26  1  0  0  0
 13 22  1  0  0  0
 13 37  1  0  0  0
 13 38  1  0  0  0
 14  3  2  0  0  0
 14 39  1  0  0  0
 15 40  1  0  0  0
 15 41  1  0  0  0
 16 15  1  0  0  0
 16 42  1  0  0  0
 16 43  1  0  0  0
 17 23  1  0  0  0
 17 44  1  0  0  0
 17 45  1  0  0  0
 18 17  1  0  0  0
 18 46  1  0  0  0
 18 47  1  0  0  0
 19 24  1  0  0  0
 19 48  1  0  0  0
 19 49  1  0  0  0
 20 19  1  0  0  0
 20 25  1  0  0  0
 20 50  1  0  0  0
 20 51  1  0  0  0
 21  1  1  0  0  0
 21 52  1  0  0  0
 21 53  1  0  0  0
 22 21  1  0  0  0
 22 15  1  0  0  0
 23 16  1  0  0  0
 24 18  1  0  0  0
 25 54  1  0  0  0
M  END
$$$$
