P0M
  CCTOOLS-0919241029

 29 30  0  0  1  0  0  0  0  0999 V2000
   -0.7110    1.5490    0.3910 C   0  0  0  0  0
   -1.7940    2.3510    0.1750 C   0  0  0  0  0
   -3.0330    1.7950   -0.1360 C   0  0  0  0  0
   -3.1850    0.4220   -0.2310 C   0  0  0  0  0
   -2.2210   -1.7500   -0.1040 O   0  0  0  0  0
   -1.3370   -3.7710    0.0120 O   0  0  0  0  0
    0.1030   -2.0670    0.4200 C   0  0  0  0  0
   -1.1760   -2.5670    0.1020 C   0  0  0  0  0
    3.7180    2.1680    0.2400 O   0  0  0  0  0
    2.6610   -1.0270   -1.2050 N   0  0  0  0  0
    3.7010    0.8680   -0.0950 C   0  0  0  0  0
    0.3000   -0.7260    0.5180 C   0  0  0  0  0
    1.6570   -0.1660    0.8560 C   0  0  0  0  0
    2.3960    0.1950   -0.4340 C   0  0  0  0  0
    4.7310    0.2370   -0.1230 O   0  0  0  0  0
   -2.0950   -0.4080   -0.0150 C   0  0  0  0  0
   -4.1010    2.6060   -0.3480 O   0  0  0  0  0
   -0.8460    0.1590    0.2990 C   0  0  0  0  0
    0.2480    1.9850    0.6270 H   0  0  0  0  0
   -1.6890    3.4240    0.2460 H   0  0  0  0  0
   -4.1490   -0.0020   -0.4730 H   0  0  0  0  0
    0.9260   -2.7480    0.5810 H   0  0  0  0  0
    4.5790    2.5550    0.4490 H   0  0  0  0  0
    3.2290   -1.6720   -0.6760 H   0  0  0  0  0
    1.8000   -1.4630   -1.5000 H   0  0  0  0  0
    1.5390    0.7280    1.4690 H   0  0  0  0  0
    2.2310   -0.9110    1.4070 H   0  0  0  0  0
    1.7810    0.8720   -1.0270 H   0  0  0  0  0
   -4.2110    2.8790   -1.2690 H   0  0  0  0  0
  1 18  1  0  0  0
  1 19  1  0  0  0
  2  1  2  0  0  0
  2  3  1  0  0  0
  2 20  1  0  0  0
  3  4  2  0  0  0
  4 16  1  0  0  0
  4 21  1  0  0  0
  5  8  1  0  0  0
  7  8  1  0  0  0
  7 22  1  0  0  0
  8  6  2  0  0  0
  9 23  1  0  0  0
 10 14  1  0  0  0
 10 24  1  0  0  0
 10 25  1  0  0  0
 11 15  2  0  0  0
 11  9  1  0  0  0
 12  7  2  0  0  0
 13 14  1  0  0  0
 13 12  1  0  0  0
 13 26  1  0  0  0
 13 27  1  0  0  0
 14 11  1  0  0  0
 14 28  1  0  0  0
 16  5  1  0  0  0
 17  3  1  0  0  0
 17 29  1  0  0  0
 18 12  1  0  0  0
 18 16  2  0  0  0
M  END
$$$$
