P2E
  CCTOOLS-0919241030

 57 57  0  0  1  0  0  0  0  0999 V2000
    3.9310    3.0420    0.0320 C   0  0  0  0  0
    4.4680    1.6530   -0.3230 C   0  0  0  0  0
    3.3120    0.7620   -0.7820 C   0  0  0  0  0
    3.8410   -0.6060   -1.1310 C   0  0  0  0  0
    3.2990   -1.6730   -0.5990 C   0  0  0  0  0
    2.0440   -1.5490    0.2270 C   0  0  0  0  0
    0.9780   -2.5000   -0.3200 C   0  0  0  0  0
    1.4100   -3.9370   -0.1110 C   0  0  0  0  0
    2.3970   -4.4610   -0.5690 O   0  0  0  0  0
   -0.3430   -2.3130    0.4550 C   0  0  0  0  0
   -0.9090   -3.7520    0.5700 C   0  0  0  0  0
   -1.7830   -3.8650    1.6950 O   0  0  0  0  0
    0.3720   -4.5960    0.7800 C   0  0  0  0  0
   -1.2900   -1.4320   -0.3170 C   0  0  0  0  0
   -1.7130   -0.3080    0.2060 C   0  0  0  0  0
   -2.6600    0.5740   -0.5660 C   0  0  0  0  0
   -3.0370   -0.0800   -1.7790 O   0  0  0  0  0
   -3.9080    0.8440    0.2770 C   0  0  0  0  0
   -4.8120    1.8380   -0.4540 C   0  0  0  0  0
   -6.0600    2.1090    0.3890 C   0  0  0  0  0
   -6.9640    3.1030   -0.3420 C   0  0  0  0  0
   -8.2120    3.3730    0.5010 C   0  0  0  0  0
    6.1940    3.4800    0.5190 O   0  0  0  0  0
    5.0690    3.9190    0.4840 C   0  0  0  0  0
    4.8340    5.1900    0.8480 O   0  0  0  0  0
    3.4580    3.4830   -0.8450 H   0  0  0  0  0
    3.1990    2.9540    0.8340 H   0  0  0  0  0
    5.2000    1.7410   -1.1250 H   0  0  0  0  0
    4.9410    1.2120    0.5540 H   0  0  0  0  0
    2.5800    0.6740    0.0200 H   0  0  0  0  0
    2.8390    1.2030   -1.6590 H   0  0  0  0  0
    4.6660   -0.7060   -1.8210 H   0  0  0  0  0
    3.7510   -2.6420   -0.7520 H   0  0  0  0  0
    2.2640   -1.8060    1.2630 H   0  0  0  0  0
    1.6760   -0.5240    0.1770 H   0  0  0  0  0
    0.8180   -2.3100   -1.3810 H   0  0  0  0  0
   -0.1510   -1.8970    1.4440 H   0  0  0  0  0
   -1.4220   -4.0410   -0.3470 H   0  0  0  0  0
   -2.1630   -4.7470    1.8100 H   0  0  0  0  0
    0.2040   -5.6270    0.4690 H   0  0  0  0  0
    0.6870   -4.5580    1.8230 H   0  0  0  0  0
   -1.6200   -1.7260   -1.3030 H   0  0  0  0  0
   -1.3830   -0.0130    1.1920 H   0  0  0  0  0
   -2.1680    1.5180   -0.8000 H   0  0  0  0  0
   -3.4810   -0.9280   -1.6470 H   0  0  0  0  0
   -4.4480   -0.0890    0.4360 H   0  0  0  0  0
   -3.6120    1.2620    1.2400 H   0  0  0  0  0
   -4.2720    2.7720   -0.6130 H   0  0  0  0  0
   -5.1070    1.4210   -1.4170 H   0  0  0  0  0
   -6.6000    1.1750    0.5480 H   0  0  0  0  0
   -5.7640    2.5260    1.3520 H   0  0  0  0  0
   -6.4240    4.0360   -0.5010 H   0  0  0  0  0
   -7.2590    2.6850   -1.3050 H   0  0  0  0  0
   -8.7520    2.4390    0.6600 H   0  0  0  0  0
   -7.9170    3.7900    1.4640 H   0  0  0  0  0
   -8.8560    4.0810   -0.0200 H   0  0  0  0  0
    5.5950    5.7140    1.1310 H   0  0  0  0  0
  1  2  1  0  0  0
  1 24  1  0  0  0
  1 26  1  0  0  0
  1 27  1  0  0  0
  2  3  1  0  0  0
  2 28  1  0  0  0
  2 29  1  0  0  0
  3  4  1  0  0  0
  3 30  1  0  0  0
  3 31  1  0  0  0
  4  5  2  0  0  0
  4 32  1  0  0  0
  5  6  1  0  0  0
  5 33  1  0  0  0
  6  7  1  0  0  0
  6 34  1  0  0  0
  6 35  1  0  0  0
  7  8  1  0  0  0
  7 10  1  0  0  0
  7 36  1  0  0  0
  8  9  2  0  0  0
  8 13  1  0  0  0
 10 11  1  0  0  0
 10 14  1  0  0  0
 10 37  1  0  0  0
 11 12  1  0  0  0
 11 13  1  0  0  0
 11 38  1  0  0  0
 12 39  1  0  0  0
 13 40  1  0  0  0
 13 41  1  0  0  0
 14 15  2  0  0  0
 14 42  1  0  0  0
 15 16  1  0  0  0
 15 43  1  0  0  0
 16 17  1  0  0  0
 16 18  1  0  0  0
 16 44  1  0  0  0
 17 45  1  0  0  0
 18 19  1  0  0  0
 18 46  1  0  0  0
 18 47  1  0  0  0
 19 20  1  0  0  0
 19 48  1  0  0  0
 19 49  1  0  0  0
 20 21  1  0  0  0
 20 50  1  0  0  0
 20 51  1  0  0  0
 21 22  1  0  0  0
 21 52  1  0  0  0
 21 53  1  0  0  0
 22 54  1  0  0  0
 22 55  1  0  0  0
 22 56  1  0  0  0
 23 24  2  0  0  0
 24 25  1  0  0  0
 25 57  1  0  0  0
M  END
$$$$
