P33
  CCTOOLS-0919241030

 52 51  0  0  0  0  0  0  0  0999 V2000
    0.0190   -0.7090    8.9930 O   0  0  0  0  0
   -1.2030   -0.6180    8.2590 C   0  0  0  0  0
   -1.1560    0.6040    7.3400 C   0  0  0  0  0
   -0.0630    0.4730    6.4290 O   0  0  0  0  0
   -0.0720    1.6380    5.6020 C   0  0  0  0  0
    1.0790    1.5610    4.5980 C   0  0  0  0  0
    0.9240    0.3980    3.7830 O   0  0  0  0  0
    2.0240    0.3820    2.8720 C   0  0  0  0  0
    1.9180   -0.8450    1.9650 C   0  0  0  0  0
    0.6920   -0.7900    1.2320 O   0  0  0  0  0
    0.6520   -1.9570    0.4080 C   0  0  0  0  0
   -0.6410   -1.9610   -0.4080 C   0  0  0  0  0
   -0.6880   -0.7940   -1.2320 O   0  0  0  0  0
   -1.9130   -0.8550   -1.9650 C   0  0  0  0  0
   -2.0260    0.3710   -2.8720 C   0  0  0  0  0
   -0.9260    0.3930   -3.7830 O   0  0  0  0  0
   -1.0870    1.5550   -4.5980 C   0  0  0  0  0
    0.0640    1.6390   -5.6020 C   0  0  0  0  0
    0.0600    0.4730   -6.4290 O   0  0  0  0  0
    1.1530    0.6100   -7.3400 C   0  0  0  0  0
    1.2060   -0.6110   -8.2590 C   0  0  0  0  0
   -0.0160   -0.7090   -8.9930 O   0  0  0  0  0
   -0.0510   -1.4910    9.5580 H   0  0  0  0  0
   -2.0370   -0.5180    8.9540 H   0  0  0  0  0
   -1.3350   -1.5180    7.6600 H   0  0  0  0  0
   -1.0230    1.5040    7.9390 H   0  0  0  0  0
   -2.0890    0.6730    6.7800 H   0  0  0  0  0
    0.0450    2.5260    6.2240 H   0  0  0  0  0
   -1.0190    1.6950    5.0650 H   0  0  0  0  0
    2.0260    1.5040    5.1360 H   0  0  0  0  0
    1.0720    2.4500    3.9680 H   0  0  0  0  0
    2.9590    0.3400    3.4310 H   0  0  0  0  0
    2.0050    1.2860    2.2630 H   0  0  0  0  0
    1.9370   -1.7490    2.5730 H   0  0  0  0  0
    2.7570   -0.8570    1.2700 H   0  0  0  0  0
    0.6870   -2.8470    1.0360 H   0  0  0  0  0
    1.5070   -1.9550   -0.2670 H   0  0  0  0  0
   -1.4970   -1.9630    0.2670 H   0  0  0  0  0
   -0.6720   -2.8510   -1.0360 H   0  0  0  0  0
   -2.7520   -0.8710   -1.2700 H   0  0  0  0  0
   -1.9280   -1.7590   -2.5730 H   0  0  0  0  0
   -2.0110    1.2760   -2.2630 H   0  0  0  0  0
   -2.9600    0.3250   -3.4310 H   0  0  0  0  0
   -1.0850    2.4440   -3.9680 H   0  0  0  0  0
   -2.0340    1.4940   -5.1360 H   0  0  0  0  0
    1.0100    1.7000   -5.0650 H   0  0  0  0  0
   -0.0590    2.5250   -6.2240 H   0  0  0  0  0
    2.0850    0.6840   -6.7800 H   0  0  0  0  0
    1.0150    1.5100   -7.9390 H   0  0  0  0  0
    1.3430   -1.5110   -7.6600 H   0  0  0  0  0
    2.0390   -0.5070   -8.9540 H   0  0  0  0  0
    0.0590   -1.4900   -9.5580 H   0  0  0  0  0
  1  2  1  0  0  0
  1 23  1  0  0  0
  2  3  1  0  0  0
  2 24  1  0  0  0
  2 25  1  0  0  0
  3  4  1  0  0  0
  3 26  1  0  0  0
  3 27  1  0  0  0
  4  5  1  0  0  0
  5  6  1  0  0  0
  5 28  1  0  0  0
  5 29  1  0  0  0
  6  7  1  0  0  0
  6 30  1  0  0  0
  6 31  1  0  0  0
  7  8  1  0  0  0
  8  9  1  0  0  0
  8 32  1  0  0  0
  8 33  1  0  0  0
  9 10  1  0  0  0
  9 34  1  0  0  0
  9 35  1  0  0  0
 10 11  1  0  0  0
 11 12  1  0  0  0
 11 36  1  0  0  0
 11 37  1  0  0  0
 12 13  1  0  0  0
 12 38  1  0  0  0
 12 39  1  0  0  0
 13 14  1  0  0  0
 14 15  1  0  0  0
 14 40  1  0  0  0
 14 41  1  0  0  0
 15 16  1  0  0  0
 15 42  1  0  0  0
 15 43  1  0  0  0
 16 17  1  0  0  0
 17 18  1  0  0  0
 17 44  1  0  0  0
 17 45  1  0  0  0
 18 19  1  0  0  0
 18 46  1  0  0  0
 18 47  1  0  0  0
 19 20  1  0  0  0
 20 21  1  0  0  0
 20 48  1  0  0  0
 20 49  1  0  0  0
 21 22  1  0  0  0
 21 50  1  0  0  0
 21 51  1  0  0  0
 22 52  1  0  0  0
M  END
$$$$
