P4G
  CCTOOLS-0919241030

 29 28  0  0  0  0  0  0  0  0999 V2000
   -4.4860    1.6470   -0.7690 C   0  0  0  0  0
   -3.8560    0.8280    0.3590 C   0  0  0  0  0
   -2.7720    0.0550   -0.1610 O   0  0  0  0  0
   -2.2280   -0.6830    0.9350 C   0  0  0  0  0
   -1.0580   -1.5370    0.4440 C   0  0  0  0  0
    0.0000   -0.6850    0.0000 O   0  0  0  0  0
    1.0580   -1.5370   -0.4440 C   0  0  0  0  0
    2.2280   -0.6830   -0.9350 C   0  0  0  0  0
    2.7720    0.0550    0.1610 O   0  0  0  0  0
    3.8560    0.8280   -0.3590 C   0  0  0  0  0
    4.4860    1.6470    0.7690 C   0  0  0  0  0
   -3.7360    2.3130   -1.1970 H   0  0  0  0  0
   -4.8580    0.9750   -1.5420 H   0  0  0  0  0
   -5.3120    2.2370   -0.3720 H   0  0  0  0  0
   -3.4840    1.5010    1.1320 H   0  0  0  0  0
   -4.6050    0.1620    0.7870 H   0  0  0  0  0
   -1.8770    0.0080    1.7010 H   0  0  0  0  0
   -2.9990   -1.3300    1.3560 H   0  0  0  0  0
   -0.7000   -2.1670    1.2590 H   0  0  0  0  0
   -1.3890   -2.1670   -0.3820 H   0  0  0  0  0
    1.3890   -2.1670    0.3820 H   0  0  0  0  0
    0.7000   -2.1670   -1.2590 H   0  0  0  0  0
    2.9990   -1.3300   -1.3560 H   0  0  0  0  0
    1.8770    0.0080   -1.7010 H   0  0  0  0  0
    4.6050    0.1620   -0.7870 H   0  0  0  0  0
    3.4840    1.5010   -1.1320 H   0  0  0  0  0
    5.3120    2.2370    0.3720 H   0  0  0  0  0
    3.7360    2.3130    1.1970 H   0  0  0  0  0
    4.8580    0.9750    1.5420 H   0  0  0  0  0
  1  2  1  0  0  0
  1 12  1  0  0  0
  1 13  1  0  0  0
  1 14  1  0  0  0
  2  3  1  0  0  0
  2 15  1  0  0  0
  2 16  1  0  0  0
  3  4  1  0  0  0
  4  5  1  0  0  0
  4 17  1  0  0  0
  4 18  1  0  0  0
  5  6  1  0  0  0
  5 19  1  0  0  0
  5 20  1  0  0  0
  6  7  1  0  0  0
  7  8  1  0  0  0
  7 21  1  0  0  0
  7 22  1  0  0  0
  8  9  1  0  0  0
  8 23  1  0  0  0
  8 24  1  0  0  0
  9 10  1  0  0  0
 10 11  1  0  0  0
 10 25  1  0  0  0
 10 26  1  0  0  0
 11 27  1  0  0  0
 11 28  1  0  0  0
 11 29  1  0  0  0
M  END
$$$$
