P8A
  CCTOOLS-0919241030

 24 24  0  0  0  0  0  0  0  0999 V2000
    0.4300   -0.5440   -0.4720 C   0  0  0  0  0
   -0.4990    0.4360   -0.5620 C   0  0  0  0  0
   -1.6880   -0.1190   -0.0300 C   0  0  0  0  0
   -2.9940    0.5580    0.0940 C   0  0  0  0  0
   -4.0440   -0.0980    0.6240 O   0  0  0  0  0
    1.8690   -0.4550   -0.9080 C   0  0  0  0  0
    4.1670    0.2530   -0.2270 C   0  0  0  0  0
    2.7050    0.1620    0.2160 C   0  0  0  0  0
   -1.4070   -1.3550    0.3320 N   0  0  0  0  0
    5.0020    0.8690    0.8970 C   0  0  0  0  0
   -3.1210    1.7070   -0.2800 O   0  0  0  0  0
   -0.1730   -1.6160    0.0860 N   0  0  0  0  0
   -0.3620    1.4320   -0.9560 H   0  0  0  0  0
   -4.8790    0.3860    0.6850 H   0  0  0  0  0
    2.2440   -1.4530   -1.1330 H   0  0  0  0  0
    1.9410    0.1700   -1.7980 H   0  0  0  0  0
    4.5410   -0.7460   -0.4520 H   0  0  0  0  0
    4.2390    0.8770   -1.1170 H   0  0  0  0  0
    2.3310    1.1600    0.4410 H   0  0  0  0  0
    2.6330   -0.4630    1.1070 H   0  0  0  0  0
    4.6280    1.8680    1.1220 H   0  0  0  0  0
    4.9310    0.2450    1.7880 H   0  0  0  0  0
    6.0440    0.9340    0.5820 H   0  0  0  0  0
    0.2610   -2.4640    0.2690 H   0  0  0  0  0
  1  2  2  0  0  0
  2  3  1  0  0  0
  2 13  1  0  0  0
  3  4  1  0  0  0
  4 11  2  0  0  0
  4  5  1  0  0  0
  5 14  1  0  0  0
  6  1  1  0  0  0
  6 15  1  0  0  0
  6 16  1  0  0  0
  7 10  1  0  0  0
  7 17  1  0  0  0
  7 18  1  0  0  0
  8  7  1  0  0  0
  8  6  1  0  0  0
  8 19  1  0  0  0
  8 20  1  0  0  0
  9  3  2  0  0  0
 10 21  1  0  0  0
 10 22  1  0  0  0
 10 23  1  0  0  0
 12  1  1  0  0  0
 12  9  1  0  0  0
 12 24  1  0  0  0
M  END
$$$$
