P9X
  CCTOOLS-0919241031

 26 27  0  0  1  0  0  0  0  0999 V2000
   -0.2040    0.5120   -0.7820 C   0  0  0  0  0
    0.2940    1.6250    0.1190 C   0  0  0  0  0
    1.8410   -0.0160    0.0230 C   0  0  0  0  0
    3.0940   -0.7680    0.2730 C   0  0  0  0  0
   -1.4760   -0.0800   -0.2330 C   0  0  0  0  0
   -3.8110   -1.1650    0.7740 C   0  0  0  0  0
    3.2680   -1.8500   -0.2480 O   0  0  0  0  0
   -2.9440   -1.9520    0.0380 C   0  0  0  0  0
   -0.4290    1.0360   -2.2020 C   0  0  0  0  0
   -0.2750    2.6590    0.4000 O   0  0  0  0  0
   -1.7770   -1.4090   -0.4650 C   0  0  0  0  0
    1.5700    1.1900    0.5610 C   0  0  0  0  0
   -2.3390    0.7050    0.5080 C   0  0  0  0  0
   -3.5070    0.1620    1.0120 C   0  0  0  0  0
    0.8480   -0.4630   -0.7680 O   0  0  0  0  0
    4.0400   -0.2490    1.0800 O   0  0  0  0  0
   -4.7230   -1.5890    1.1680 H   0  0  0  0  0
   -3.1790   -2.9900   -0.1430 H   0  0  0  0  0
   -1.2010    1.8050   -2.1870 H   0  0  0  0  0
    0.4990    1.4600   -2.5850 H   0  0  0  0  0
   -0.7470    0.2150   -2.8460 H   0  0  0  0  0
   -1.1000   -2.0230   -1.0410 H   0  0  0  0  0
    2.2220    1.7390    1.2250 H   0  0  0  0  0
   -2.1020    1.7420    0.6940 H   0  0  0  0  0
   -4.1810    0.7750    1.5910 H   0  0  0  0  0
    4.8400   -0.7760    1.2140 H   0  0  0  0  0
  1  5  1  0  0  0
  1  2  1  0  0  0
  1 15  1  0  0  0
  2 12  1  0  0  0
  3  4  1  0  0  0
  4  7  2  0  0  0
  4 16  1  0  0  0
  5 11  2  0  0  0
  6  8  2  0  0  0
  6 17  1  0  0  0
  8 18  1  0  0  0
  9  1  1  0  0  0
  9 19  1  0  0  0
  9 20  1  0  0  0
  9 21  1  0  0  0
 10  2  2  0  0  0
 11  8  1  0  0  0
 11 22  1  0  0  0
 12  3  2  0  0  0
 12 23  1  0  0  0
 13 14  2  0  0  0
 13  5  1  0  0  0
 13 24  1  0  0  0
 14  6  1  0  0  0
 14 25  1  0  0  0
 15  3  1  0  0  0
 16 26  1  0  0  0
M  END
$$$$
