PCW
  CCTOOLS-0919241031

139138  0  0  1  0  0  0  0  0999 V2000
   -0.5320   -4.6970    0.7840 C   0  0  0  0  0
   -1.2060   -4.0350    1.9880 C   0  0  0  0  0
   -0.1370   -3.4830    2.9320 C   0  0  0  0  0
    2.7700   -4.3360   -2.7870 C   0  0  0  0  0
    3.8410   -3.4840   -3.4710 C   0  0  0  0  0
    5.5560   -4.4970   -2.1340 C   0  0  0  0  0
    5.9430   -2.3690   -3.1700 C   0  0  0  0  0
    4.4080   -2.5480   -1.3360 C   0  0  0  0  0
    1.7620   -1.9850    2.8270 C   0  0  0  0  0
    2.6740   -1.0580    2.0650 C   0  0  0  0  0
    3.7440   -0.5060    3.0090 C   0  0  0  0  0
    4.6700    0.4350    2.2360 C   0  0  0  0  0
    5.7400    0.9870    3.1800 C   0  0  0  0  0
    6.6660    1.9280    2.4060 C   0  0  0  0  0
    7.7360    2.4810    3.3510 C   0  0  0  0  0
    8.6620    3.4210    2.5770 C   0  0  0  0  0
    9.7160    3.9660    3.5070 C   0  0  0  0  0
   10.9830    3.8560    3.1960 C   0  0  0  0  0
   11.3840    3.3480    1.8350 C   0  0  0  0  0
   12.3620    4.3330    1.1910 C   0  0  0  0  0
   12.7690    3.8180   -0.1910 C   0  0  0  0  0
   13.7460    4.8030   -0.8360 C   0  0  0  0  0
   14.1530    4.2870   -2.2170 C   0  0  0  0  0
   15.1310    5.2720   -2.8620 C   0  0  0  0  0
   15.5380    4.7560   -4.2430 C   0  0  0  0  0
   16.5150    5.7410   -4.8880 C   0  0  0  0  0
   -3.3410   -3.1870    1.2240 C   0  0  0  0  0
   -4.2220   -2.0610    0.7500 C   0  0  0  0  0
   -5.6290   -2.5960    0.4720 C   0  0  0  0  0
   -6.5240   -1.4520   -0.0100 C   0  0  0  0  0
   -7.9300   -1.9870   -0.2880 C   0  0  0  0  0
   -8.8250   -0.8440   -0.7700 C   0  0  0  0  0
  -10.2310   -1.3790   -1.0480 C   0  0  0  0  0
  -11.1260   -0.2360   -1.5300 C   0  0  0  0  0
  -12.5110   -0.7630   -1.8040 C   0  0  0  0  0
  -13.5500   -0.1930   -1.2460 C   0  0  0  0  0
  -13.3830    1.0920   -0.4770 C   0  0  0  0  0
  -14.3610    2.1390   -1.0140 C   0  0  0  0  0
  -14.1910    3.4430   -0.2330 C   0  0  0  0  0
  -15.1690    4.4900   -0.7710 C   0  0  0  0  0
  -14.9990    5.7950    0.0100 C   0  0  0  0  0
  -15.9770    6.8420   -0.5270 C   0  0  0  0  0
  -15.8070    8.1470    0.2540 C   0  0  0  0  0
  -16.7850    9.1940   -0.2840 C   0  0  0  0  0
    4.9370   -3.2240   -2.5280 N   0  3  0  0  0
   -2.0560   -2.9500    1.5300 O   0  0  0  0  0
    0.7420   -2.5900    2.1980 O   0  0  0  0  0
    1.9480   -2.1830    4.0040 O   0  0  0  0  0
   -3.7910   -4.3030    1.3300 O   0  0  0  0  0
   -0.1120   -4.8760   -2.1760 O   0  0  0  0  0
    1.6650   -5.7710   -0.6230 O   0  0  0  0  0
    0.3520   -3.7630    0.1600 O   0  0  0  0  0
    2.1310   -3.5680   -1.7650 O   0  0  0  0  0
    1.0230   -4.5220   -1.0910 P   0  0  0  0  0
    0.0350   -5.5660    1.1180 H   0  0  0  0  0
   -1.2920   -5.0120    0.0690 H   0  0  0  0  0
   -1.8110   -4.7720    2.5160 H   0  0  0  0  0
    0.4450   -4.3070    3.3440 H   0  0  0  0  0
   -0.6160   -2.9340    3.7430 H   0  0  0  0  0
    3.2350   -5.2160   -2.3430 H   0  0  0  0  0
    2.0300   -4.6490   -3.5230 H   0  0  0  0  0
    4.2280   -4.0150   -4.3400 H   0  0  0  0  0
    3.4030   -2.5370   -3.7890 H   0  0  0  0  0
    5.9480   -4.9990   -3.0180 H   0  0  0  0  0
    6.3690   -4.3050   -1.4340 H   0  0  0  0  0
    4.8090   -5.1320   -1.6580 H   0  0  0  0  0
    5.4840   -1.4240   -3.4630 H   0  0  0  0  0
    6.7570   -2.1760   -2.4700 H   0  0  0  0  0
    6.3360   -2.8710   -4.0550 H   0  0  0  0  0
    3.8000   -3.2470   -0.7620 H   0  0  0  0  0
    5.2350   -2.1950   -0.7210 H   0  0  0  0  0
    3.7950   -1.7000   -1.6420 H   0  0  0  0  0
    2.0930   -0.2340    1.6530 H   0  0  0  0  0
    3.1540   -1.6070    1.2540 H   0  0  0  0  0
    4.3250   -1.3300    3.4220 H   0  0  0  0  0
    3.2640    0.0420    3.8200 H   0  0  0  0  0
    4.0890    1.2590    1.8230 H   0  0  0  0  0
    5.1500   -0.1130    1.4250 H   0  0  0  0  0
    6.3210    0.1630    3.5930 H   0  0  0  0  0
    5.2600    1.5360    3.9910 H   0  0  0  0  0
    6.0850    2.7520    1.9940 H   0  0  0  0  0
    7.1450    1.3800    1.5950 H   0  0  0  0  0
    8.3170    1.6560    3.7630 H   0  0  0  0  0
    7.2560    3.0290    4.1620 H   0  0  0  0  0
    8.0810    4.2460    2.1640 H   0  0  0  0  0
    9.1410    2.8730    1.7660 H   0  0  0  0  0
    9.4250    4.4460    4.4300 H   0  0  0  0  0
   11.7410    4.1300    3.9150 H   0  0  0  0  0
   10.4980    3.2520    1.2080 H   0  0  0  0  0
   11.8640    2.3750    1.9380 H   0  0  0  0  0
   13.2480    4.4290    1.8180 H   0  0  0  0  0
   11.8820    5.3070    1.0880 H   0  0  0  0  0
   11.8830    3.7220   -0.8190 H   0  0  0  0  0
   13.2490    2.8440   -0.0890 H   0  0  0  0  0
   14.6320    4.8980   -0.2080 H   0  0  0  0  0
   13.2660    5.7760   -0.9380 H   0  0  0  0  0
   13.2670    4.1910   -2.8450 H   0  0  0  0  0
   14.6330    3.3130   -2.1150 H   0  0  0  0  0
   16.0170    5.3680   -2.2340 H   0  0  0  0  0
   14.6510    6.2450   -2.9640 H   0  0  0  0  0
   14.6520    4.6600   -4.8710 H   0  0  0  0  0
   16.0180    3.7830   -4.1410 H   0  0  0  0  0
   16.8050    5.3740   -5.8720 H   0  0  0  0  0
   16.0350    6.7140   -4.9900 H   0  0  0  0  0
   17.4010    5.8370   -4.2600 H   0  0  0  0  0
   -4.2730   -1.2900    1.5180 H   0  0  0  0  0
   -3.8080   -1.6360   -0.1650 H   0  0  0  0  0
   -5.5790   -3.3670   -0.2970 H   0  0  0  0  0
   -6.0430   -3.0210    1.3860 H   0  0  0  0  0
   -6.5740   -0.6810    0.7590 H   0  0  0  0  0
   -6.1090   -1.0270   -0.9250 H   0  0  0  0  0
   -7.8800   -2.7590   -1.0570 H   0  0  0  0  0
   -8.3440   -2.4120    0.6260 H   0  0  0  0  0
   -8.8750   -0.0730   -0.0010 H   0  0  0  0  0
   -8.4100   -0.4190   -1.6840 H   0  0  0  0  0
  -10.1810   -2.1500   -1.8170 H   0  0  0  0  0
  -10.6450   -1.8040   -0.1340 H   0  0  0  0  0
  -11.1760    0.5350   -0.7610 H   0  0  0  0  0
  -10.7120    0.1890   -2.4440 H   0  0  0  0  0
  -12.6460   -1.6100   -2.4590 H   0  0  0  0  0
  -14.5270   -0.6450   -1.3380 H   0  0  0  0  0
  -13.5870    0.9120    0.5790 H   0  0  0  0  0
  -12.3620    1.4550   -0.5930 H   0  0  0  0  0
  -14.1570    2.3180   -2.0700 H   0  0  0  0  0
  -15.3820    1.7760   -0.8980 H   0  0  0  0  0
  -14.3950    3.2640    0.8220 H   0  0  0  0  0
  -13.1700    3.8060   -0.3490 H   0  0  0  0  0
  -14.9650    4.6700   -1.8260 H   0  0  0  0  0
  -16.1900    4.1270   -0.6550 H   0  0  0  0  0
  -15.2030    5.6160    1.0660 H   0  0  0  0  0
  -13.9780    6.1580   -0.1060 H   0  0  0  0  0
  -15.7730    7.0210   -1.5830 H   0  0  0  0  0
  -16.9980    6.4790   -0.4110 H   0  0  0  0  0
  -16.0110    7.9670    1.3090 H   0  0  0  0  0
  -14.7860    8.5100    0.1370 H   0  0  0  0  0
  -16.5810    9.3730   -1.3390 H   0  0  0  0  0
  -17.8060    8.8310   -0.1680 H   0  0  0  0  0
  -16.6640   10.1230    0.2730 H   0  0  0  0  0
   -0.5040   -4.0370   -2.4540 H   0  0  0  0  0
  1  2  1  0  0  0
  1 52  1  0  0  0
  1 55  1  0  0  0
  1 56  1  0  0  0
  2  3  1  0  0  0
  2 46  1  0  0  0
  2 57  1  0  0  0
  3 47  1  0  0  0
  3 58  1  0  0  0
  3 59  1  0  0  0
  4  5  1  0  0  0
  4 53  1  0  0  0
  4 60  1  0  0  0
  4 61  1  0  0  0
  5 45  1  0  0  0
  5 62  1  0  0  0
  5 63  1  0  0  0
  6 45  1  0  0  0
  6 64  1  0  0  0
  6 65  1  0  0  0
  6 66  1  0  0  0
  7 45  1  0  0  0
  7 67  1  0  0  0
  7 68  1  0  0  0
  7 69  1  0  0  0
  8 45  1  0  0  0
  8 70  1  0  0  0
  8 71  1  0  0  0
  8 72  1  0  0  0
  9 10  1  0  0  0
  9 47  1  0  0  0
  9 48  2  0  0  0
 10 11  1  0  0  0
 10 73  1  0  0  0
 10 74  1  0  0  0
 11 12  1  0  0  0
 11 75  1  0  0  0
 11 76  1  0  0  0
 12 13  1  0  0  0
 12 77  1  0  0  0
 12 78  1  0  0  0
 13 14  1  0  0  0
 13 79  1  0  0  0
 13 80  1  0  0  0
 14 15  1  0  0  0
 14 81  1  0  0  0
 14 82  1  0  0  0
 15 16  1  0  0  0
 15 83  1  0  0  0
 15 84  1  0  0  0
 16 17  1  0  0  0
 16 85  1  0  0  0
 16 86  1  0  0  0
 17 18  2  0  0  0
 17 87  1  0  0  0
 18 19  1  0  0  0
 18 88  1  0  0  0
 19 20  1  0  0  0
 19 89  1  0  0  0
 19 90  1  0  0  0
 20 21  1  0  0  0
 20 91  1  0  0  0
 20 92  1  0  0  0
 21 22  1  0  0  0
 21 93  1  0  0  0
 21 94  1  0  0  0
 22 23  1  0  0  0
 22 95  1  0  0  0
 22 96  1  0  0  0
 23 24  1  0  0  0
 23 97  1  0  0  0
 23 98  1  0  0  0
 24 25  1  0  0  0
 24 99  1  0  0  0
 24100  1  0  0  0
 25 26  1  0  0  0
 25101  1  0  0  0
 25102  1  0  0  0
 26103  1  0  0  0
 26104  1  0  0  0
 26105  1  0  0  0
 27 28  1  0  0  0
 27 46  1  0  0  0
 27 49  2  0  0  0
 28 29  1  0  0  0
 28106  1  0  0  0
 28107  1  0  0  0
 29 30  1  0  0  0
 29108  1  0  0  0
 29109  1  0  0  0
 30 31  1  0  0  0
 30110  1  0  0  0
 30111  1  0  0  0
 31 32  1  0  0  0
 31112  1  0  0  0
 31113  1  0  0  0
 32 33  1  0  0  0
 32114  1  0  0  0
 32115  1  0  0  0
 33 34  1  0  0  0
 33116  1  0  0  0
 33117  1  0  0  0
 34 35  1  0  0  0
 34118  1  0  0  0
 34119  1  0  0  0
 35 36  2  0  0  0
 35120  1  0  0  0
 36 37  1  0  0  0
 36121  1  0  0  0
 37 38  1  0  0  0
 37122  1  0  0  0
 37123  1  0  0  0
 38 39  1  0  0  0
 38124  1  0  0  0
 38125  1  0  0  0
 39 40  1  0  0  0
 39126  1  0  0  0
 39127  1  0  0  0
 40 41  1  0  0  0
 40128  1  0  0  0
 40129  1  0  0  0
 41 42  1  0  0  0
 41130  1  0  0  0
 41131  1  0  0  0
 42 43  1  0  0  0
 42132  1  0  0  0
 42133  1  0  0  0
 43 44  1  0  0  0
 43134  1  0  0  0
 43135  1  0  0  0
 44136  1  0  0  0
 44137  1  0  0  0
 44138  1  0  0  0
 50 54  1  0  0  0
 50139  1  0  0  0
 51 54  2  0  0  0
 52 54  1  0  0  0
 53 54  1  0  0  0
M  CHG  1  45   1
M  END
$$$$
