PFX
  CCTOOLS-1004241120

 24 23  0  0  0  0  0  0  0  0999 V2000
   -4.0100   -1.1610    1.1040 N   0  0  0  0  0
   -3.6960   -1.1780   -0.3310 C   0  0  0  0  0
   -3.0870    0.1670   -0.7340 C   0  0  0  0  0
   -1.8320    0.3390   -0.0740 O   0  0  0  0  0
   -1.1760    1.5700   -0.3850 C   0  0  0  0  0
    0.1510    1.6470    0.3740 C   0  0  0  0  0
    1.0280    0.6220   -0.0970 O   0  0  0  0  0
    2.3020    0.6050    0.5490 C   0  0  0  0  0
    3.1410   -0.5090   -0.0220 C   0  0  0  0  0
    2.6940   -1.2160   -0.8940 O   0  0  0  0  0
   -4.6190   -0.3900    1.3320 H   0  0  0  0  0
   -4.4140   -2.0390    1.3960 H   0  0  0  0  0
   -2.9830   -1.9760   -0.5370 H   0  0  0  0  0
   -4.6090   -1.3490   -0.9010 H   0  0  0  0  0
   -2.9360    0.1880   -1.8140 H   0  0  0  0  0
   -3.7630    0.9730   -0.4470 H   0  0  0  0  0
   -0.9850    1.6200   -1.4570 H   0  0  0  0  0
   -1.8120    2.4050   -0.0890 H   0  0  0  0  0
    0.6090    2.6220    0.2070 H   0  0  0  0  0
   -0.0310    1.5080    1.4390 H   0  0  0  0  0
    2.8050    1.5580    0.3870 H   0  0  0  0  0
    2.1650    0.4440    1.6190 H   0  0  0  0  0
    4.3850   -0.7160    0.4370 O   0  0  0  0  0
    4.8850   -1.4420    0.0400 H   0  0  0  0  0
  1  2  1  0  0  0
  1 11  1  0  0  0
  1 12  1  0  0  0
  2  3  1  0  0  0
  2 13  1  0  0  0
  2 14  1  0  0  0
  3  4  1  0  0  0
  3 15  1  0  0  0
  3 16  1  0  0  0
  4  5  1  0  0  0
  5  6  1  0  0  0
  5 17  1  0  0  0
  5 18  1  0  0  0
  6  7  1  0  0  0
  6 19  1  0  0  0
  6 20  1  0  0  0
  8  7  1  0  0  0
  8  9  1  0  0  0
  8 21  1  0  0  0
  8 22  1  0  0  0
  9 23  1  0  0  0
 10  9  2  0  0  0
 23 24  1  0  0  0
M  END
$$$$
