PIO
  CCTOOLS-0919241032

 96 96  0  0  1  0  0  0  0  0999 V2000
    3.3750   -0.5980    0.7600 C   0  0  0  0  0
    1.9780   -0.5520    0.4620 O   0  0  0  0  0
    0.9260   -1.6340    1.0210 P   0  0  0  0  0
    3.7860    0.6880    1.4800 C   0  0  0  0  0
    3.5150    1.8120    0.6400 O   0  0  0  0  0
    5.2810    0.6380    1.7990 C   0  0  0  0  0
    5.6650    1.8390    2.4720 O   0  0  0  0  0
    6.0760    0.5060    0.4990 C   0  0  0  0  0
    7.4730    0.4600    0.7970 O   0  0  0  0  0
    8.5250    1.5420    0.2370 P   0  0  0  0  0
    5.6650   -0.7800   -0.2220 C   0  0  0  0  0
    6.4080   -0.9030   -1.4360 O   0  0  0  0  0
    7.3830   -2.1470   -1.7460 P   0  0  0  0  0
    4.1700   -0.7300   -0.5410 C   0  0  0  0  0
    3.7860   -1.9310   -1.2130 O   0  0  0  0  0
    1.2620   -3.0810    0.4000 O   0  0  0  0  0
    1.0210   -1.6970    2.4970 O   0  0  0  0  0
   -0.5660   -1.2010    0.5980 O   0  0  0  0  0
   -3.6950    1.0310    0.2210 C   0  0  0  0  0
   -4.0890    0.7300   -0.8810 O   0  0  0  0  0
   -6.5600   -2.0880    0.3780 C   0  0  0  0  0
   -6.6150   -3.0650    1.0880 O   0  0  0  0  0
   -1.7330   -1.9020    1.0330 C   0  0  0  0  0
   -3.8640    2.4420    0.7220 C   0  0  0  0  0
   -7.8140   -1.5530   -0.2640 C   0  0  0  0  0
   -2.9780   -1.2300    0.4500 C   0  0  0  0  0
   -3.1070    0.1080    0.9980 O   0  0  0  0  0
   -4.5570    3.2850   -0.3500 C   0  0  0  0  0
   -9.0060   -2.4210    0.1420 C   0  0  0  0  0
   -4.2170   -2.0520    0.8120 C   0  0  0  0  0
   -5.3830   -1.4810    0.1610 O   0  0  0  0  0
    8.6120    1.4270   -1.3660 O   0  0  0  0  0
    8.0790    2.9030    0.6110 O   0  0  0  0  0
    9.9760    1.2590    0.8750 O   0  0  0  0  0
   -4.7290    4.7170    0.1600 C   0  0  0  0  0
  -10.2790   -1.8770   -0.5100 C   0  0  0  0  0
    6.5130   -3.4970   -1.8510 O   0  0  0  0  0
    8.1510   -1.8930   -3.1380 O   0  0  0  0  0
    8.3730   -2.2810   -0.6540 O   0  0  0  0  0
   -5.4220    5.5600   -0.9130 C   0  0  0  0  0
  -11.4710   -2.7460   -0.1040 C   0  0  0  0  0
   -5.5940    6.9930   -0.4030 C   0  0  0  0  0
  -12.7440   -2.2020   -0.7550 C   0  0  0  0  0
   -6.2870    7.8360   -1.4750 C   0  0  0  0  0
  -13.9360   -3.0710   -0.3490 C   0  0  0  0  0
   -6.4590    9.2680   -0.9660 C   0  0  0  0  0
  -15.2090   -2.5270   -1.0010 C   0  0  0  0  0
    3.5820   -1.4550    1.4010 H   0  0  0  0  0
    3.2190    0.7820    2.4070 H   0  0  0  0  0
    5.4880   -0.2190    2.4400 H   0  0  0  0  0
    5.8700    1.3630   -0.1420 H   0  0  0  0  0
    5.8720   -1.6370    0.4190 H   0  0  0  0  0
    3.9630    0.1270   -1.1810 H   0  0  0  0  0
   -1.6840   -2.9360    0.6910 H   0  0  0  0  0
   -1.7850   -1.8820    2.1210 H   0  0  0  0  0
   -4.0820   -3.0800    0.4780 H   0  0  0  0  0
   -4.3600   -2.0360    1.8920 H   0  0  0  0  0
   -4.4710    2.4350    1.6280 H   0  0  0  0  0
   -3.9510    3.2910   -1.2550 H   0  0  0  0  0
   -5.3360    4.7110    1.0650 H   0  0  0  0  0
   -4.8150    5.5670   -1.8180 H   0  0  0  0  0
   -6.2010    6.9860    0.5020 H   0  0  0  0  0
   -5.6800    7.8420   -2.3810 H   0  0  0  0  0
   -6.9530    9.8690   -1.7300 H   0  0  0  0  0
   -2.8860    2.8680    0.9440 H   0  0  0  0  0
   -5.5360    2.8580   -0.5710 H   0  0  0  0  0
   -3.7500    5.1440    0.3810 H   0  0  0  0  0
   -6.4000    5.1340   -1.1340 H   0  0  0  0  0
   -4.6150    7.4190   -0.1820 H   0  0  0  0  0
   -7.2650    7.4090   -1.6970 H   0  0  0  0  0
   -7.0650    9.2620   -0.0600 H   0  0  0  0  0
   -5.4800    9.6950   -0.7450 H   0  0  0  0  0
   -7.9820   -0.5270    0.0660 H   0  0  0  0  0
   -8.8380   -3.4460   -0.1880 H   0  0  0  0  0
  -10.4470   -0.8520   -0.1790 H   0  0  0  0  0
  -11.3030   -3.7710   -0.4340 H   0  0  0  0  0
  -12.9120   -1.1770   -0.4250 H   0  0  0  0  0
  -13.7680   -4.0960   -0.6790 H   0  0  0  0  0
  -15.0990   -2.5450   -2.0850 H   0  0  0  0  0
   -7.7030   -1.5710   -1.3480 H   0  0  0  0  0
   -9.1170   -2.4020    1.2260 H   0  0  0  0  0
  -10.1680   -1.8960   -1.5940 H   0  0  0  0  0
  -11.5820   -2.7270    0.9810 H   0  0  0  0  0
  -12.6340   -2.2210   -1.8400 H   0  0  0  0  0
  -14.0470   -3.0520    0.7350 H   0  0  0  0  0
  -16.0590   -3.1450   -0.7110 H   0  0  0  0  0
  -15.3770   -1.5020   -0.6700 H   0  0  0  0  0
   -2.8850   -1.1710   -0.6350 H   0  0  0  0  0
    3.7510    2.6630    1.0340 H   0  0  0  0  0
    5.2000    1.9880    3.3070 H   0  0  0  0  0
    2.8490   -1.9690   -1.4470 H   0  0  0  0  0
    8.8990    0.5600   -1.6830 H   0  0  0  0  0
   10.6620    1.8750    0.5810 H   0  0  0  0  0
    5.8430   -3.4800   -2.5470 H   0  0  0  0  0
    8.7570   -2.6040   -3.3880 H   0  0  0  0  0
    1.2190   -3.1130   -0.5660 H   0  0  0  0  0
  1  2  1  0  0  0
  1  4  1  0  0  0
  1 14  1  0  0  0
  1 48  1  0  0  0
  2  3  1  0  0  0
  3 16  1  0  0  0
  3 17  2  0  0  0
  3 18  1  0  0  0
  4  5  1  0  0  0
  4  6  1  0  0  0
  4 49  1  0  0  0
  5 89  1  0  0  0
  6  7  1  0  0  0
  6  8  1  0  0  0
  6 50  1  0  0  0
  7 90  1  0  0  0
  8  9  1  0  0  0
  8 11  1  0  0  0
  8 51  1  0  0  0
  9 10  1  0  0  0
 10 32  1  0  0  0
 10 33  2  0  0  0
 10 34  1  0  0  0
 11 12  1  0  0  0
 11 14  1  0  0  0
 11 52  1  0  0  0
 12 13  1  0  0  0
 13 37  1  0  0  0
 13 38  1  0  0  0
 13 39  2  0  0  0
 14 15  1  0  0  0
 14 53  1  0  0  0
 15 91  1  0  0  0
 16 96  1  0  0  0
 18 23  1  0  0  0
 19 20  2  0  0  0
 19 24  1  0  0  0
 19 27  1  0  0  0
 21 22  2  0  0  0
 21 25  1  0  0  0
 21 31  1  0  0  0
 23 26  1  0  0  0
 23 54  1  0  0  0
 23 55  1  0  0  0
 24 28  1  0  0  0
 24 58  1  0  0  0
 24 65  1  0  0  0
 25 29  1  0  0  0
 25 73  1  0  0  0
 25 80  1  0  0  0
 26 27  1  0  0  0
 26 30  1  0  0  0
 26 88  1  0  0  0
 28 35  1  0  0  0
 28 59  1  0  0  0
 28 66  1  0  0  0
 29 36  1  0  0  0
 29 74  1  0  0  0
 29 81  1  0  0  0
 30 31  1  0  0  0
 30 56  1  0  0  0
 30 57  1  0  0  0
 32 92  1  0  0  0
 34 93  1  0  0  0
 35 40  1  0  0  0
 35 60  1  0  0  0
 35 67  1  0  0  0
 36 41  1  0  0  0
 36 75  1  0  0  0
 36 82  1  0  0  0
 37 94  1  0  0  0
 38 95  1  0  0  0
 40 42  1  0  0  0
 40 61  1  0  0  0
 40 68  1  0  0  0
 41 43  1  0  0  0
 41 76  1  0  0  0
 41 83  1  0  0  0
 42 44  1  0  0  0
 42 62  1  0  0  0
 42 69  1  0  0  0
 43 45  1  0  0  0
 43 77  1  0  0  0
 43 84  1  0  0  0
 44 46  1  0  0  0
 44 63  1  0  0  0
 44 70  1  0  0  0
 45 47  1  0  0  0
 45 78  1  0  0  0
 45 85  1  0  0  0
 46 64  1  0  0  0
 46 71  1  0  0  0
 46 72  1  0  0  0
 47 79  1  0  0  0
 47 86  1  0  0  0
 47 87  1  0  0  0
M  END
$$$$
