POV
  CCTOOLS-0919241033

134133  0  0  1  0  0  0  0  0999 V2000
   -2.2370   -0.0070   -3.9250 N   0  3  0  0  0
   -0.6950   -3.8880   -2.4660 P   0  0  0  0  0
    0.4350   -4.8940   -0.2630 C   0  0  0  0  0
    0.6060   -4.5590    1.2200 C   0  0  0  0  0
   -0.7680   -4.3340    1.8540 C   0  0  0  0  0
   13.0550    0.0540    1.5410 C   0  0  0  0  0
  -12.1970    3.0040    0.6280 C   0  0  0  0  0
   -2.2500   -2.4500   -4.0950 C   0  0  0  0  0
   -0.3230   -3.8630   -0.9000 O   0  0  0  0  0
   12.6810    1.1920    0.6270 C   0  0  0  0  0
  -13.5530    3.1740    1.3160 C   0  0  0  0  0
   -3.1060   -1.1820   -4.0760 C   0  0  0  0  0
   -1.6600   -2.6460   -2.8080 O   0  0  0  0  0
   13.6690    2.3450    0.8160 C   0  0  0  0  0
  -14.3670    4.2410    0.5820 C   0  0  0  0  0
   -1.1920   -0.0350   -4.9570 C   0  0  0  0  0
    0.5990   -3.7810   -3.3040 O   0  5  0  0  0
   13.2890    3.5000   -0.1120 C   0  0  0  0  0
  -15.7240    4.4110    1.2700 C   0  0  0  0  0
   -3.0370    1.2160   -4.0720 C   0  0  0  0  0
   -1.4180   -5.2110   -2.8020 O   0  0  0  0  0
   14.2770    4.6530    0.0780 C   0  0  0  0  0
  -16.5380    5.4780    0.5350 C   0  0  0  0  0
   -1.6120   -0.0270   -2.5950 C   0  0  0  0  0
   13.8970    5.8080   -0.8510 C   0  0  0  0  0
  -17.8940    5.6480    1.2230 C   0  0  0  0  0
   14.8850    6.9610   -0.6610 C   0  0  0  0  0
  -18.7080    6.7150    0.4890 C   0  0  0  0  0
   14.5050    8.1160   -1.5890 C   0  0  0  0  0
   15.4930    9.2690   -1.4000 C   0  0  0  0  0
    2.7350   -3.5130    1.4480 C   0  0  0  0  0
    1.4060   -3.3550    1.3560 O   0  0  0  0  0
    3.6290   -2.3080    1.5910 C   0  0  0  0  0
    3.2160   -4.6210    1.4160 O   0  0  0  0  0
    5.0880   -2.7620    1.6740 C   0  0  0  0  0
    5.9950   -1.5390    1.8200 C   0  0  0  0  0
    7.4540   -1.9930    1.9030 C   0  0  0  0  0
    8.3620   -0.7700    2.0490 C   0  0  0  0  0
    9.8200   -1.2250    2.1320 C   0  0  0  0  0
   10.7280   -0.0010    2.2770 C   0  0  0  0  0
   12.1650   -0.4490    2.3600 C   0  0  0  0  0
   -2.7140   -2.9940    1.5380 C   0  0  0  0  0
   -1.4830   -3.3120    1.1080 O   0  0  0  0  0
   -3.5160   -1.9430    0.8140 C   0  0  0  0  0
   -3.1790   -3.5500    2.5040 O   0  0  0  0  0
   -4.8720   -1.7730    1.5020 C   0  0  0  0  0
   -5.6860   -0.7060    0.7680 C   0  0  0  0  0
   -7.0420   -0.5360    1.4560 C   0  0  0  0  0
   -7.8570    0.5310    0.7210 C   0  0  0  0  0
   -9.2120    0.7010    1.4090 C   0  0  0  0  0
  -10.0270    1.7680    0.6750 C   0  0  0  0  0
  -11.3830    1.9380    1.3630 C   0  0  0  0  0
   12.4600   -1.1840    3.0940 H   0  0  0  0  0
    1.4160   -4.9670   -0.7340 H   0  0  0  0  0
   -0.0880   -5.8450   -0.3630 H   0  0  0  0  0
    1.1070   -5.3860    1.7240 H   0  0  0  0  0
   -1.3360   -5.2640    1.8310 H   0  0  0  0  0
   -0.6430   -4.0090    2.8860 H   0  0  0  0  0
  -12.3500    2.6970   -0.4060 H   0  0  0  0  0
  -11.6580    3.9510    0.6490 H   0  0  0  0  0
   14.0580   -0.3470    1.5210 H   0  0  0  0  0
   -2.8760   -3.3070   -4.3420 H   0  0  0  0  0
   -1.4640   -2.3470   -4.8430 H   0  0  0  0  0
   12.7130    0.8520   -0.4080 H   0  0  0  0  0
   11.6740    1.5340    0.8660 H   0  0  0  0  0
  -14.0920    2.2270    1.2950 H   0  0  0  0  0
  -13.4000    3.4820    2.3510 H   0  0  0  0  0
   -3.8040   -1.2270   -3.2400 H   0  0  0  0  0
   -3.6620   -1.1050   -5.0100 H   0  0  0  0  0
    3.5010   -1.6560    0.7270 H   0  0  0  0  0
   13.6370    2.6840    1.8520 H   0  0  0  0  0
    3.3650   -1.7650    2.4990 H   0  0  0  0  0
   14.6760    2.0030    0.5770 H   0  0  0  0  0
   -2.9770   -0.9960    0.8360 H   0  0  0  0  0
  -13.8280    5.1880    0.6030 H   0  0  0  0  0
   -3.6690   -2.2510   -0.2200 H   0  0  0  0  0
  -14.5210    3.9340   -0.4530 H   0  0  0  0  0
   -1.6550   -0.0200   -5.9440 H   0  0  0  0  0
   -0.5470    0.8360   -4.8450 H   0  0  0  0  0
   -0.5980   -0.9430   -4.8480 H   0  0  0  0  0
    5.2160   -3.4150    2.5380 H   0  0  0  0  0
   13.3210    3.1600   -1.1470 H   0  0  0  0  0
    5.3520   -3.3050    0.7670 H   0  0  0  0  0
   12.2820    3.8420    0.1270 H   0  0  0  0  0
   -5.4110   -2.7200    1.4810 H   0  0  0  0  0
  -16.2630    3.4640    1.2480 H   0  0  0  0  0
   -4.7190   -1.4650    2.5370 H   0  0  0  0  0
  -15.5700    4.7190    2.3040 H   0  0  0  0  0
   -3.8120    1.2370   -3.3060 H   0  0  0  0  0
   -2.3920    2.0880   -3.9600 H   0  0  0  0  0
   -3.5000    1.2310   -5.0580 H   0  0  0  0  0
    5.8670   -0.8870    0.9560 H   0  0  0  0  0
   14.2440    4.9920    1.1130 H   0  0  0  0  0
    5.7310   -0.9960    2.7270 H   0  0  0  0  0
   15.2840    4.3110   -0.1610 H   0  0  0  0  0
   -5.1470    0.2410    0.7890 H   0  0  0  0  0
  -15.9980    6.4250    0.5560 H   0  0  0  0  0
   -5.8390   -1.0140   -0.2660 H   0  0  0  0  0
  -16.6910    5.1700   -0.4990 H   0  0  0  0  0
   -0.8030   -0.7570   -2.5850 H   0  0  0  0  0
   -1.2140    0.9610   -2.3660 H   0  0  0  0  0
   -2.3570   -0.3010   -1.8480 H   0  0  0  0  0
    7.5820   -2.6460    2.7670 H   0  0  0  0  0
   13.9290    5.4680   -1.8860 H   0  0  0  0  0
    7.7180   -2.5360    0.9960 H   0  0  0  0  0
   12.8890    6.1500   -0.6120 H   0  0  0  0  0
   -7.5820   -1.4830    1.4350 H   0  0  0  0  0
  -18.4330    4.7010    1.2020 H   0  0  0  0  0
   -6.8890   -0.2280    2.4900 H   0  0  0  0  0
  -17.7400    5.9560    2.2570 H   0  0  0  0  0
    8.2330   -0.1180    1.1850 H   0  0  0  0  0
   14.8520    7.3000    0.3740 H   0  0  0  0  0
    8.0970   -0.2280    2.9560 H   0  0  0  0  0
   15.8920    6.6190   -0.9000 H   0  0  0  0  0
   -7.3170    1.4780    0.7430 H   0  0  0  0  0
  -19.6740    6.8360    0.9790 H   0  0  0  0  0
   -8.0100    0.2230   -0.3130 H   0  0  0  0  0
  -18.1690    7.6620    0.5100 H   0  0  0  0  0
  -18.8610    6.4070   -0.5460 H   0  0  0  0  0
    9.9490   -1.8770    2.9960 H   0  0  0  0  0
   14.5370    7.7760   -2.6250 H   0  0  0  0  0
   10.0840   -1.7670    1.2250 H   0  0  0  0  0
   13.4980    8.4580   -1.3500 H   0  0  0  0  0
   -9.7520   -0.2470    1.3880 H   0  0  0  0  0
   -9.0590    1.0080    2.4440 H   0  0  0  0  0
   10.5990    0.6510    1.4130 H   0  0  0  0  0
   15.4600    9.6080   -0.3650 H   0  0  0  0  0
   10.4640    0.5410    3.1850 H   0  0  0  0  0
   16.5000    8.9270   -1.6390 H   0  0  0  0  0
   15.2220   10.0920   -2.0610 H   0  0  0  0  0
   -9.4880    2.7150    0.6960 H   0  0  0  0  0
  -10.1800    1.4600   -0.3590 H   0  0  0  0  0
  -11.2300    2.2450    2.3970 H   0  0  0  0  0
  -11.9220    0.9900    1.3420 H   0  0  0  0  0
  1 12  1  0  0  0
  1 16  1  0  0  0
  1 20  1  0  0  0
  1 24  1  0  0  0
  2  9  1  0  0  0
  2 13  1  0  0  0
  2 17  1  0  0  0
  2 21  2  0  0  0
  3  4  1  0  0  0
  3  9  1  0  0  0
  3 54  1  0  0  0
  3 55  1  0  0  0
  4  5  1  0  0  0
  4 32  1  0  0  0
  4 56  1  0  0  0
  5 43  1  0  0  0
  5 57  1  0  0  0
  5 58  1  0  0  0
  6 10  1  0  0  0
  6 41  2  0  0  0
  6 61  1  0  0  0
  7 11  1  0  0  0
  7 52  1  0  0  0
  7 59  1  0  0  0
  7 60  1  0  0  0
  8 12  1  0  0  0
  8 13  1  0  0  0
  8 62  1  0  0  0
  8 63  1  0  0  0
 10 14  1  0  0  0
 10 64  1  0  0  0
 10 65  1  0  0  0
 11 15  1  0  0  0
 11 66  1  0  0  0
 11 67  1  0  0  0
 12 68  1  0  0  0
 12 69  1  0  0  0
 14 18  1  0  0  0
 14 71  1  0  0  0
 14 73  1  0  0  0
 15 19  1  0  0  0
 15 75  1  0  0  0
 15 77  1  0  0  0
 16 78  1  0  0  0
 16 79  1  0  0  0
 16 80  1  0  0  0
 18 22  1  0  0  0
 18 82  1  0  0  0
 18 84  1  0  0  0
 19 23  1  0  0  0
 19 86  1  0  0  0
 19 88  1  0  0  0
 20 89  1  0  0  0
 20 90  1  0  0  0
 20 91  1  0  0  0
 22 25  1  0  0  0
 22 93  1  0  0  0
 22 95  1  0  0  0
 23 26  1  0  0  0
 23 97  1  0  0  0
 23 99  1  0  0  0
 24100  1  0  0  0
 24101  1  0  0  0
 24102  1  0  0  0
 25 27  1  0  0  0
 25104  1  0  0  0
 25106  1  0  0  0
 26 28  1  0  0  0
 26108  1  0  0  0
 26110  1  0  0  0
 27 29  1  0  0  0
 27112  1  0  0  0
 27114  1  0  0  0
 28116  1  0  0  0
 28118  1  0  0  0
 28119  1  0  0  0
 29 30  1  0  0  0
 29121  1  0  0  0
 29123  1  0  0  0
 30127  1  0  0  0
 30129  1  0  0  0
 30130  1  0  0  0
 31 32  1  0  0  0
 31 33  1  0  0  0
 31 34  2  0  0  0
 33 35  1  0  0  0
 33 70  1  0  0  0
 33 72  1  0  0  0
 35 36  1  0  0  0
 35 81  1  0  0  0
 35 83  1  0  0  0
 36 37  1  0  0  0
 36 92  1  0  0  0
 36 94  1  0  0  0
 37 38  1  0  0  0
 37103  1  0  0  0
 37105  1  0  0  0
 38 39  1  0  0  0
 38111  1  0  0  0
 38113  1  0  0  0
 39 40  1  0  0  0
 39120  1  0  0  0
 39122  1  0  0  0
 40 41  1  0  0  0
 40126  1  0  0  0
 40128  1  0  0  0
 41 53  1  0  0  0
 42 43  1  0  0  0
 42 44  1  0  0  0
 42 45  2  0  0  0
 44 46  1  0  0  0
 44 74  1  0  0  0
 44 76  1  0  0  0
 46 47  1  0  0  0
 46 85  1  0  0  0
 46 87  1  0  0  0
 47 48  1  0  0  0
 47 96  1  0  0  0
 47 98  1  0  0  0
 48 49  1  0  0  0
 48107  1  0  0  0
 48109  1  0  0  0
 49 50  1  0  0  0
 49115  1  0  0  0
 49117  1  0  0  0
 50 51  1  0  0  0
 50124  1  0  0  0
 50125  1  0  0  0
 51 52  1  0  0  0
 51131  1  0  0  0
 51132  1  0  0  0
 52133  1  0  0  0
 52134  1  0  0  0
M  CHG  1   1   1
M  CHG  1  17  -1
M  END
$$$$
