PRL
  CCTOOLS-0919241033

 27 29  0  0  0  0  0  0  0  0999 V2000
    1.6160    0.0000    2.4440 C   0  0  0  0  0
    0.8880    0.0000    3.5880 C   0  0  0  0  0
   -0.5130    0.0010    3.5650 C   0  0  0  0  0
   -1.2110   -0.0040    2.3800 C   0  0  0  0  0
   -1.2110   -0.0000   -2.3800 C   0  0  0  0  0
   -0.5130    0.0000   -3.5650 C   0  0  0  0  0
    0.8880    0.0000   -3.5880 C   0  0  0  0  0
    1.6160   -0.0000   -2.4440 C   0  0  0  0  0
    1.6780   -0.0000    0.0000 C   0  0  0  0  0
   -1.1580   -0.0000    0.0000 N   0  0  0  0  0
   -0.5070   -0.0000    1.1600 C   0  0  0  0  0
    0.9580   -0.0000   -1.1960 C   0  0  0  0  0
    0.9580   -0.0000    1.1960 C   0  0  0  0  0
   -0.5070   -0.0000   -1.1600 C   0  0  0  0  0
   -1.2140    0.0020    4.7680 N   0  0  0  0  0
   -1.2140    0.0010   -4.7680 N   0  0  0  0  0
    2.6950    0.0000    2.4870 H   0  0  0  0  0
    1.4000    0.0000    4.5390 H   0  0  0  0  0
   -2.2910   -0.0080    2.3850 H   0  0  0  0  0
   -2.2910    0.0000   -2.3850 H   0  0  0  0  0
    1.4000    0.0000   -4.5390 H   0  0  0  0  0
    2.6950    0.0000   -2.4870 H   0  0  0  0  0
    2.7580   -0.0000    0.0000 H   0  0  0  0  0
   -0.7320    0.0010    5.6100 H   0  0  0  0  0
   -2.1840    0.0060    4.7640 H   0  0  0  0  0
   -0.7320    0.0010   -5.6100 H   0  0  0  0  0
   -2.1840    0.0010   -4.7640 H   0  0  0  0  0
  1  2  2  0  0  0
  1 13  1  0  0  0
  1 17  1  0  0  0
  2  3  1  0  0  0
  2 18  1  0  0  0
  3  4  2  0  0  0
  3 15  1  0  0  0
  4 11  1  0  0  0
  4 19  1  0  0  0
  5  6  2  0  0  0
  5 14  1  0  0  0
  5 20  1  0  0  0
  6  7  1  0  0  0
  6 16  1  0  0  0
  7  8  2  0  0  0
  7 21  1  0  0  0
  8 12  1  0  0  0
  8 22  1  0  0  0
  9 12  2  0  0  0
  9 13  1  0  0  0
  9 23  1  0  0  0
 10 11  1  0  0  0
 10 14  2  0  0  0
 11 13  2  0  0  0
 12 14  1  0  0  0
 15 24  1  0  0  0
 15 25  1  0  0  0
 16 26  1  0  0  0
 16 27  1  0  0  0
M  END
$$$$
