PS1
  CCTOOLS-0919241033

 87 86  0  0  1  0  0  0  0  0999 V2000
   -0.8700   -3.5440    0.8880 O   0  5  0  0  0
    1.1940   -3.3330    2.3230 O   0  0  0  0  0
    0.4290   -2.7410    1.1180 P   0  0  0  0  0
    1.3530   -2.8260   -0.1980 O   0  0  0  0  0
    1.5450   -4.2140   -0.4790 C   0  0  0  0  0
    2.4190   -4.3660   -1.7250 C   0  0  0  0  0
    2.7230   -5.8250   -1.9500 C   0  0  0  0  0
    2.0960   -6.4530   -2.7710 O   0  0  0  0  0
    3.6900   -6.4270   -1.2400 O   0  0  0  0  0
    1.7070   -3.8280   -2.8910 N   0  0  0  0  0
    0.0630   -1.2020    1.4180 O   0  0  0  0  0
   -0.8480   -1.2020    2.5190 C   0  0  0  0  0
   -1.2380    0.2380    2.8570 C   0  0  0  0  0
    0.0250    1.0630    3.1110 C   0  0  0  0  0
    0.9110    0.9570    1.9650 O   0  0  0  0  0
    2.0870    1.6020    1.9640 C   0  0  0  0  0
    2.4100    2.2720    2.9160 O   0  0  0  0  0
    3.0060    1.4920    0.7740 C   0  0  0  0  0
    4.2700    2.3170    1.0280 C   0  0  0  0  0
    5.2020    2.2050   -0.1800 C   0  0  0  0  0
    6.4660    3.0300    0.0730 C   0  0  0  0  0
    7.3990    2.9180   -1.1340 C   0  0  0  0  0
    8.6620    3.7420   -0.8810 C   0  0  0  0  0
    9.5950    3.6310   -2.0890 C   0  0  0  0  0
   10.8590    4.4550   -1.8350 C   0  0  0  0  0
   11.7910    4.3430   -3.0430 C   0  0  0  0  0
   -1.9770    0.8130    1.7470 O   0  0  0  0  0
   -3.3130    0.7000    1.7000 C   0  0  0  0  0
   -3.9020    0.1200    2.5810 O   0  0  0  0  0
   -4.0800    1.2960    0.5480 C   0  0  0  0  0
   -5.5740    1.0280    0.7360 C   0  0  0  0  0
   -6.3520    1.6340   -0.4340 C   0  0  0  0  0
   -7.8470    1.3650   -0.2460 C   0  0  0  0  0
   -8.6250    1.9710   -1.4160 C   0  0  0  0  0
  -10.1190    1.7020   -1.2280 C   0  0  0  0  0
  -10.8980    2.3080   -2.3980 C   0  0  0  0  0
  -12.3920    2.0400   -2.2100 C   0  0  0  0  0
  -13.1700    2.6450   -3.3790 C   0  0  0  0  0
    2.0350   -4.6920    0.3700 H   0  0  0  0  0
    0.5780   -4.6870   -0.6530 H   0  0  0  0  0
    3.3510   -3.8190   -1.5840 H   0  0  0  0  0
    3.8850   -7.3630   -1.3840 H   0  0  0  0  0
    2.2710   -4.0420   -3.7000 H   0  0  0  0  0
    0.8550   -4.3620   -2.9830 H   0  0  0  0  0
   -0.3720   -1.6620    3.3850 H   0  0  0  0  0
   -1.7410   -1.7670    2.2520 H   0  0  0  0  0
   -1.8620    0.2460    3.7510 H   0  0  0  0  0
    0.5330    0.6860    3.9980 H   0  0  0  0  0
   -0.2470    2.1070    3.2640 H   0  0  0  0  0
    2.4980    1.8690   -0.1130 H   0  0  0  0  0
    3.2780    0.4480    0.6210 H   0  0  0  0  0
    4.7780    1.9400    1.9150 H   0  0  0  0  0
    3.9970    3.3610    1.1810 H   0  0  0  0  0
    4.6940    2.5820   -1.0680 H   0  0  0  0  0
    5.4750    1.1610   -0.3330 H   0  0  0  0  0
    6.9740    2.6530    0.9610 H   0  0  0  0  0
    6.1940    4.0740    0.2270 H   0  0  0  0  0
    6.8910    3.2950   -2.0220 H   0  0  0  0  0
    7.6710    1.8740   -1.2880 H   0  0  0  0  0
    9.1700    3.3650    0.0070 H   0  0  0  0  0
    8.3900    4.7870   -0.7280 H   0  0  0  0  0
    9.0870    4.0080   -2.9760 H   0  0  0  0  0
    9.8670    2.5860   -2.2420 H   0  0  0  0  0
   11.3670    4.0780   -0.9480 H   0  0  0  0  0
   10.5860    5.4990   -1.6820 H   0  0  0  0  0
   12.6920    4.9310   -2.8620 H   0  0  0  0  0
   12.0640    3.2990   -3.1960 H   0  0  0  0  0
   11.2830    4.7210   -3.9300 H   0  0  0  0  0
   -3.9050    2.3720    0.5130 H   0  0  0  0  0
   -3.7440    0.8440   -0.3850 H   0  0  0  0  0
   -5.7490   -0.0470    0.7700 H   0  0  0  0  0
   -5.9100    1.4810    1.6690 H   0  0  0  0  0
   -6.1780    2.7090   -0.4690 H   0  0  0  0  0
   -6.0170    1.1810   -1.3670 H   0  0  0  0  0
   -8.0210    0.2900   -0.2120 H   0  0  0  0  0
   -8.1830    1.8180    0.6870 H   0  0  0  0  0
   -8.4510    3.0460   -1.4500 H   0  0  0  0  0
   -8.2890    1.5180   -2.3490 H   0  0  0  0  0
  -10.2940    0.6270   -1.1930 H   0  0  0  0  0
  -10.4550    2.1550   -0.2950 H   0  0  0  0  0
  -10.7230    3.3840   -2.4320 H   0  0  0  0  0
  -10.5620    1.8550   -3.3310 H   0  0  0  0  0
  -12.5670    0.9640   -2.1750 H   0  0  0  0  0
  -12.7280    2.4920   -1.2770 H   0  0  0  0  0
  -14.2350    2.4540   -3.2450 H   0  0  0  0  0
  -12.9960    3.7210   -3.4140 H   0  0  0  0  0
  -12.8340    2.1930   -4.3120 H   0  0  0  0  0
  1  3  1  0  0  0
  2  3  2  0  0  0
  3  4  1  0  0  0
  3 11  1  0  0  0
  4  5  1  0  0  0
  5  6  1  0  0  0
  5 39  1  0  0  0
  5 40  1  0  0  0
  6  7  1  0  0  0
  6 10  1  0  0  0
  6 41  1  0  0  0
  7  8  2  0  0  0
  7  9  1  0  0  0
  9 42  1  0  0  0
 10 43  1  0  0  0
 10 44  1  0  0  0
 11 12  1  0  0  0
 12 13  1  0  0  0
 12 45  1  0  0  0
 12 46  1  0  0  0
 13 14  1  0  0  0
 13 27  1  0  0  0
 13 47  1  0  0  0
 14 15  1  0  0  0
 14 48  1  0  0  0
 14 49  1  0  0  0
 15 16  1  0  0  0
 16 17  2  0  0  0
 16 18  1  0  0  0
 18 19  1  0  0  0
 18 50  1  0  0  0
 18 51  1  0  0  0
 19 20  1  0  0  0
 19 52  1  0  0  0
 19 53  1  0  0  0
 20 21  1  0  0  0
 20 54  1  0  0  0
 20 55  1  0  0  0
 21 22  1  0  0  0
 21 56  1  0  0  0
 21 57  1  0  0  0
 22 23  1  0  0  0
 22 58  1  0  0  0
 22 59  1  0  0  0
 23 24  1  0  0  0
 23 60  1  0  0  0
 23 61  1  0  0  0
 24 25  1  0  0  0
 24 62  1  0  0  0
 24 63  1  0  0  0
 25 26  1  0  0  0
 25 64  1  0  0  0
 25 65  1  0  0  0
 26 66  1  0  0  0
 26 67  1  0  0  0
 26 68  1  0  0  0
 27 28  1  0  0  0
 28 29  2  0  0  0
 28 30  1  0  0  0
 30 31  1  0  0  0
 30 69  1  0  0  0
 30 70  1  0  0  0
 31 32  1  0  0  0
 31 71  1  0  0  0
 31 72  1  0  0  0
 32 33  1  0  0  0
 32 73  1  0  0  0
 32 74  1  0  0  0
 33 34  1  0  0  0
 33 75  1  0  0  0
 33 76  1  0  0  0
 34 35  1  0  0  0
 34 77  1  0  0  0
 34 78  1  0  0  0
 35 36  1  0  0  0
 35 79  1  0  0  0
 35 80  1  0  0  0
 36 37  1  0  0  0
 36 81  1  0  0  0
 36 82  1  0  0  0
 37 38  1  0  0  0
 37 83  1  0  0  0
 37 84  1  0  0  0
 38 85  1  0  0  0
 38 86  1  0  0  0
 38 87  1  0  0  0
M  CHG  1   1  -1
M  END
$$$$
