PUC
  CCTOOLS-0919241034

 59 60  0  0  1  0  0  0  0  0999 V2000
   -6.2550    2.7320   -0.3960 C   0  0  0  0  0
   -6.3230    3.2790    0.6790 O   0  0  0  0  0
   -5.0860    1.8350   -0.7130 C   0  0  0  0  0
   -7.2240    2.9190   -1.3060 O   0  0  0  0  0
   -4.1380    1.7900    0.4870 C   0  0  0  0  0
    3.9740   -1.0440    1.1990 O   0  0  0  0  0
   -2.9510    0.8800    0.1650 C   0  0  0  0  0
   -2.0170    0.8350    1.3470 C   0  0  0  0  0
   -1.0920   -2.9040   -1.9070 O   0  0  0  0  0
   -1.6500   -0.3180    1.8490 C   0  0  0  0  0
   -2.0030   -1.5970    1.1340 C   0  0  0  0  0
   -0.7310   -2.4130    0.8920 C   0  0  0  0  0
   -1.0840   -3.8160    0.3030 C   0  0  0  0  0
    0.2530   -4.1510   -0.4540 C   0  0  0  0  0
    0.2370   -2.8450   -1.3220 C   0  0  0  0  0
    0.1340   -1.7560   -0.2100 C   0  0  0  0  0
    1.5010   -1.4190    0.3250 C   0  0  0  0  0
    1.9170   -0.1760    0.3240 C   0  0  0  0  0
    3.2840    0.1610    0.8600 C   0  0  0  0  0
    4.0770    0.9200   -0.2070 C   0  0  0  0  0
    5.4170    1.3710    0.3780 C   0  0  0  0  0
    6.2090    2.1300   -0.6880 C   0  0  0  0  0
    7.5490    2.5810   -0.1040 C   0  0  0  0  0
    8.3420    3.3390   -1.1700 C   0  0  0  0  0
   -1.9800   -3.4820   -0.9310 C   0  0  0  0  0
   -7.9550    3.4990   -1.0560 H   0  0  0  0  0
   -5.4480    0.8300   -0.9280 H   0  0  0  0  0
   -4.5550    2.2240   -1.5820 H   0  0  0  0  0
   -3.7760    2.7960    0.7020 H   0  0  0  0  0
   -4.6690    1.4010    1.3550 H   0  0  0  0  0
   -3.3130   -0.1260   -0.0500 H   0  0  0  0  0
   -2.4200    1.2690   -0.7040 H   0  0  0  0  0
   -1.6510    1.7540    1.7800 H   0  0  0  0  0
   -1.0940   -0.3520    2.7740 H   0  0  0  0  0
   -2.6950   -2.1760    1.7460 H   0  0  0  0  0
   -2.4710   -1.3620    0.1780 H   0  0  0  0  0
   -0.1630   -2.5180    1.8160 H   0  0  0  0  0
   -1.4560   -4.5610    1.0070 H   0  0  0  0  0
    1.1100   -4.1910    0.2190 H   0  0  0  0  0
    0.1690   -5.0520   -1.0610 H   0  0  0  0  0
    1.0590   -2.7340   -2.0300 H   0  0  0  0  0
   -0.3560   -0.8630   -0.5970 H   0  0  0  0  0
    2.1390   -2.2010    0.7100 H   0  0  0  0  0
    1.2790    0.6060   -0.0600 H   0  0  0  0  0
    3.1830    0.7840    1.7490 H   0  0  0  0  0
    4.1000   -1.6470    0.4540 H   0  0  0  0  0
    4.2550    0.2660   -1.0610 H   0  0  0  0  0
    3.5090    1.7920   -0.5290 H   0  0  0  0  0
    5.2390    2.0240    1.2320 H   0  0  0  0  0
    5.9850    0.4980    0.7010 H   0  0  0  0  0
    6.3870    1.4760   -1.5420 H   0  0  0  0  0
    5.6410    3.0020   -1.0110 H   0  0  0  0  0
    7.3710    3.2340    0.7500 H   0  0  0  0  0
    8.1170    1.7080    0.2190 H   0  0  0  0  0
    9.2960    3.6610   -0.7530 H   0  0  0  0  0
    8.5190    2.6860   -2.0240 H   0  0  0  0  0
    7.7730    4.2120   -1.4930 H   0  0  0  0  0
   -2.7530   -2.7660   -0.6530 H   0  0  0  0  0
   -2.4320   -4.3920   -1.3260 H   0  0  0  0  0
  1  2  2  0  0  0
  1  3  1  0  0  0
  1  4  1  0  0  0
  3  5  1  0  0  0
  3 27  1  0  0  0
  3 28  1  0  0  0
  4 26  1  0  0  0
  5  7  1  0  0  0
  5 29  1  0  0  0
  5 30  1  0  0  0
  6 19  1  0  0  0
  6 46  1  0  0  0
  7  8  1  0  0  0
  7 31  1  0  0  0
  7 32  1  0  0  0
  8 10  2  0  0  0
  8 33  1  0  0  0
  9 15  1  0  0  0
  9 25  1  0  0  0
 10 11  1  0  0  0
 10 34  1  0  0  0
 11 12  1  0  0  0
 11 35  1  0  0  0
 11 36  1  0  0  0
 12 13  1  0  0  0
 12 16  1  0  0  0
 12 37  1  0  0  0
 13 14  1  0  0  0
 13 25  1  0  0  0
 13 38  1  0  0  0
 14 15  1  0  0  0
 14 39  1  0  0  0
 14 40  1  0  0  0
 15 16  1  0  0  0
 15 41  1  0  0  0
 16 17  1  0  0  0
 16 42  1  0  0  0
 17 18  2  0  0  0
 17 43  1  0  0  0
 18 19  1  0  0  0
 18 44  1  0  0  0
 19 20  1  0  0  0
 19 45  1  0  0  0
 20 21  1  0  0  0
 20 47  1  0  0  0
 20 48  1  0  0  0
 21 22  1  0  0  0
 21 49  1  0  0  0
 21 50  1  0  0  0
 22 23  1  0  0  0
 22 51  1  0  0  0
 22 52  1  0  0  0
 23 24  1  0  0  0
 23 53  1  0  0  0
 23 54  1  0  0  0
 24 55  1  0  0  0
 24 56  1  0  0  0
 24 57  1  0  0  0
 25 58  1  0  0  0
 25 59  1  0  0  0
M  END
$$$$
