Q2B
  CCTOOLS-0919241035

 41 44  0  0  1  0  0  0  0  0999 V2000
    0.0330    0.6180   -0.2020 C   0  0  0  0  0
   -1.1130    1.3320   -0.0780 C   0  0  0  0  0
   -2.4660    0.7530    0.0720 C   0  0  0  0  0
   -2.8660   -0.3120   -0.7370 C   0  0  0  0  0
   -4.1290   -0.8470   -0.5930 C   0  0  0  0  0
   -4.9990   -0.3310    0.3510 C   0  0  0  0  0
   -4.6090    0.7240    1.1560 C   0  0  0  0  0
   -3.3460    1.2650    1.0260 C   0  0  0  0  0
    0.4450   -3.3560   -2.6340 O   0  0  0  0  0
    0.7930   -2.7910   -1.6130 N   0  3  0  0  0
    0.7810   -1.3280   -1.5450 C   0  0  0  0  0
    0.1570   -0.8840   -0.2200 C   0  0  0  0  0
    1.0340   -1.3290    0.9220 C   0  0  0  0  0
    0.6660   -2.1510    1.9210 C   0  0  0  0  0
    1.7910   -2.2980    2.7660 C   0  0  0  0  0
    2.7780   -1.5570    2.2310 C   0  0  0  0  0
    2.3160   -0.9770    1.1120 O   0  0  0  0  0
   -0.8250    2.6770   -0.1100 N   0  0  0  0  0
    0.5320    2.8590   -0.2590 C   0  0  0  0  0
    1.3380    3.9890   -0.3480 C   0  0  0  0  0
    2.7010    3.8490   -0.4960 C   0  0  0  0  0
    3.2810    2.5890   -0.5590 C   0  0  0  0  0
    2.5090    1.4650   -0.4750 C   0  0  0  0  0
    1.1250    1.5830   -0.3220 C   0  0  0  0  0
    1.1510   -3.4430   -0.6480 O   0  5  0  0  0
   -2.1880   -0.7150   -1.4750 H   0  0  0  0  0
   -4.4400   -1.6710   -1.2190 H   0  0  0  0  0
   -5.9870   -0.7540    0.4600 H   0  0  0  0  0
   -5.2930    1.1230    1.8910 H   0  0  0  0  0
   -3.0410    2.0860    1.6580 H   0  0  0  0  0
    1.8030   -0.9530   -1.6090 H   0  0  0  0  0
    0.1960   -0.9300   -2.3740 H   0  0  0  0  0
   -0.8310   -1.3310   -0.1160 H   0  0  0  0  0
   -0.3030   -2.6090    2.0540 H   0  0  0  0  0
    1.8460   -2.8910    3.6670 H   0  0  0  0  0
    3.7750   -1.4500    2.6330 H   0  0  0  0  0
   -1.4790    3.3890   -0.0390 H   0  0  0  0  0
    0.8970    4.9740   -0.3010 H   0  0  0  0  0
    3.3250    4.7280   -0.5650 H   0  0  0  0  0
    4.3500    2.4970   -0.6770 H   0  0  0  0  0
    2.9670    0.4880   -0.5260 H   0  0  0  0  0
  1  2  2  0  0  0
  1 24  1  0  0  0
  2 18  1  0  0  0
  3  2  1  0  0  0
  3  8  2  0  0  0
  4  3  1  0  0  0
  4 26  1  0  0  0
  5  4  2  0  0  0
  5  6  1  0  0  0
  5 27  1  0  0  0
  6  7  2  0  0  0
  6 28  1  0  0  0
  7  8  1  0  0  0
  7 29  1  0  0  0
  8 30  1  0  0  0
  9 10  2  0  0  0
 10 11  1  0  0  0
 11 12  1  0  0  0
 11 31  1  0  0  0
 11 32  1  0  0  0
 12 13  1  0  0  0
 12  1  1  0  0  0
 12 33  1  0  0  0
 13 14  2  0  0  0
 14 15  1  0  0  0
 14 34  1  0  0  0
 15 35  1  0  0  0
 16 15  2  0  0  0
 16 36  1  0  0  0
 17 13  1  0  0  0
 17 16  1  0  0  0
 18 19  1  0  0  0
 18 37  1  0  0  0
 19 20  2  0  0  0
 20 38  1  0  0  0
 21 20  1  0  0  0
 21 39  1  0  0  0
 22 21  2  0  0  0
 22 40  1  0  0  0
 23 24  2  0  0  0
 23 22  1  0  0  0
 23 41  1  0  0  0
 24 19  1  0  0  0
 25 10  1  0  0  0
M  CHG  1  10   1
M  CHG  1  25  -1
M  END
$$$$
