Q2L
  CCTOOLS-0919241035

 48 51  0  0  1  0  0  0  0  0999 V2000
   -0.4870   -1.3580    1.8240 C   0  0  0  0  0
   -0.9100    0.5420    0.2870 C   0  0  0  0  0
   -0.6410    1.8490    0.0470 C   0  0  0  0  0
    0.6980    2.4720    0.1220 C   0  0  0  0  0
    1.1230    3.3430   -0.8820 C   0  0  0  0  0
    2.3730    3.9210   -0.8060 C   0  0  0  0  0
    3.9270   -0.8560   -1.1150 C   0  0  0  0  0
    2.6380   -0.7350   -0.5110 O   0  0  0  0  0
    1.6330   -1.4760   -1.0480 C   0  0  0  0  0
    1.8830   -2.3020   -2.1350 C   0  0  0  0  0
    0.8600   -3.0540   -2.6790 C   0  0  0  0  0
   -0.4120   -2.9840   -2.1420 C   0  0  0  0  0
   -0.6640   -2.1620   -1.0590 C   0  0  0  0  0
    0.3580   -1.4120   -0.5070 C   0  0  0  0  0
    0.0840   -0.5210    0.6770 C   0  0  0  0  0
    0.5240   -2.3130    2.2830 N   0  3  0  0  0
    0.7180   -2.4690    3.4750 O   0  5  0  0  0
    1.1710   -2.9510    1.4720 O   0  0  0  0  0
    3.2050    3.6390    0.2620 C   0  0  0  0  0
    2.7900    2.7760    1.2610 C   0  0  0  0  0
    1.5400    2.1960    1.2000 C   0  0  0  0  0
   -1.8050    2.5070   -0.2770 N   0  0  0  0  0
   -2.8620    1.6240   -0.2520 C   0  0  0  0  0
   -4.2250    1.7620   -0.4940 C   0  0  0  0  0
   -5.0540    0.6650   -0.3870 C   0  0  0  0  0
   -4.5430   -0.5770   -0.0390 C   0  0  0  0  0
   -3.2080   -0.7360    0.2040 C   0  0  0  0  0
   -2.3490    0.3610    0.1010 C   0  0  0  0  0
   -0.7680   -0.7020    2.6470 H   0  0  0  0  0
   -1.3670   -1.8990    1.4750 H   0  0  0  0  0
    0.4740    3.5640   -1.7170 H   0  0  0  0  0
    2.7030    4.5950   -1.5830 H   0  0  0  0  0
    4.6360   -0.2140   -0.5920 H   0  0  0  0  0
    4.2620   -1.8910   -1.0540 H   0  0  0  0  0
    3.8680   -0.5540   -2.1610 H   0  0  0  0  0
    2.8770   -2.3570   -2.5550 H   0  0  0  0  0
    1.0540   -3.6970   -3.5250 H   0  0  0  0  0
   -1.2110   -3.5720   -2.5690 H   0  0  0  0  0
   -1.6580   -2.1090   -0.6410 H   0  0  0  0  0
    1.0130   -0.0500    0.9990 H   0  0  0  0  0
    4.1850    4.0900    0.3150 H   0  0  0  0  0
    3.4440    2.5600    2.0930 H   0  0  0  0  0
    1.2170    1.5230    1.9800 H   0  0  0  0  0
   -1.8720    3.4510   -0.4900 H   0  0  0  0  0
   -4.6330    2.7240   -0.7650 H   0  0  0  0  0
   -6.1110    0.7750   -0.5760 H   0  0  0  0  0
   -5.2070   -1.4260    0.0410 H   0  0  0  0  0
   -2.8180   -1.7060    0.4740 H   0  0  0  0  0
  1 15  1  0  0  0
  1 29  1  0  0  0
  1 30  1  0  0  0
  2 28  1  0  0  0
  3  2  2  0  0  0
  3 22  1  0  0  0
  4  3  1  0  0  0
  5  4  1  0  0  0
  5 31  1  0  0  0
  6  5  2  0  0  0
  6 32  1  0  0  0
  7 33  1  0  0  0
  7 34  1  0  0  0
  7 35  1  0  0  0
  8  7  1  0  0  0
  8  9  1  0  0  0
  9 10  1  0  0  0
 10 11  2  0  0  0
 10 36  1  0  0  0
 11 37  1  0  0  0
 12 11  1  0  0  0
 12 38  1  0  0  0
 13 12  2  0  0  0
 13 39  1  0  0  0
 14  9  2  0  0  0
 14 13  1  0  0  0
 15  2  1  0  0  0
 15 14  1  0  0  0
 15 40  1  0  0  0
 16  1  1  0  0  0
 17 16  1  0  0  0
 18 16  2  0  0  0
 19 20  2  0  0  0
 19  6  1  0  0  0
 19 41  1  0  0  0
 20 21  1  0  0  0
 20 42  1  0  0  0
 21  4  2  0  0  0
 21 43  1  0  0  0
 22 23  1  0  0  0
 22 44  1  0  0  0
 23 24  2  0  0  0
 24 25  1  0  0  0
 24 45  1  0  0  0
 25 46  1  0  0  0
 26 25  2  0  0  0
 26 47  1  0  0  0
 27 26  1  0  0  0
 27 48  1  0  0  0
 28 27  2  0  0  0
 28 23  1  0  0  0
M  CHG  1  16   1
M  CHG  1  17  -1
M  END
$$$$
