Q3G
  CCTOOLS-0919241035

130129  0  0  1  0  0  0  0  0999 V2000
  -10.5090    1.6740    1.1060 C   0  0  0  0  0
   -6.8790    0.4310    0.7810 C   0  0  0  0  0
   -4.5640   -0.4370    1.1430 C   0  0  0  0  0
   -2.2500   -1.3050    1.5040 C   0  0  0  0  0
    0.8600   -2.6340    3.2090 C   0  0  0  0  0
    2.2050   -3.0290    2.5950 C   0  0  0  0  0
  -11.5080    2.1680    0.0580 C   0  0  0  0  0
   -9.1940    1.3000    0.4190 C   0  0  0  0  0
   -8.1940    0.8060    1.4670 C   0  0  0  0  0
   -5.8790   -0.0620    1.8290 C   0  0  0  0  0
   -3.5650   -0.9300    2.1910 C   0  0  0  0  0
   -1.2650   -1.7910    2.5360 C   0  0  0  0  0
    1.9770   -4.0650    1.4930 C   0  0  0  0  0
   -1.2750   -4.0650   -2.6660 C   0  0  0  0  0
   -2.2890   -3.0290   -3.1530 C   0  0  0  0  0
   -3.1110   -3.6180   -4.2710 C   0  0  0  0  0
    4.1850   -1.8340    2.0160 C   0  0  0  0  0
    4.9160   -0.6470    1.4450 C   0  0  0  0  0
    6.4250   -0.8790    1.5520 C   0  0  0  0  0
    7.1680    0.3260    0.9720 C   0  0  0  0  0
    8.6770    0.0950    1.0780 C   0  0  0  0  0
    9.4200    1.3000    0.4980 C   0  0  0  0  0
   10.9280    1.0690    0.6050 C   0  0  0  0  0
   11.6710    2.2740    0.0250 C   0  0  0  0  0
   13.1800    2.0430    0.1310 C   0  0  0  0  0
   -1.5790   -1.8400   -3.6410 N   0  0  0  0  0
   -1.5820   -1.8330    3.7010 O   0  0  0  0  0
   -0.0350   -2.1770    2.1620 O   0  0  0  0  0
    1.0440   -3.5500    0.5400 O   0  0  0  0  0
    0.0330   -5.6900   -0.3370 O   0  0  0  0  0
    1.8260   -4.6000   -1.7400 O   0  0  0  0  0
   -0.5750   -3.5500   -1.5310 O   0  0  0  0  0
   -2.8480   -3.3500   -5.4190 O   0  0  0  0  0
   -4.1350   -4.4390   -3.9900 O   0  0  0  0  0
    2.8420   -1.8530    2.0290 O   0  0  0  0  0
    4.8060   -2.7700    2.4630 O   0  0  0  0  0
    0.5700   -4.3770   -0.7580 P   0  0  0  0  0
  -10.3260    2.4650    1.8340 H   0  0  0  0  0
   -7.0620   -0.3590    0.0530 H   0  0  0  0  0
   -4.7470   -1.2270    0.4140 H   0  0  0  0  0
   -2.4320   -2.0950    0.7760 H   0  0  0  0  0
    0.4230   -3.4970    3.7110 H   0  0  0  0  0
    2.8460   -3.4540    3.3670 H   0  0  0  0  0
    2.9230   -4.2800    0.9950 H   0  0  0  0  0
    1.5800   -4.9810    1.9310 H   0  0  0  0  0
   -1.7960   -4.9810   -2.3860 H   0  0  0  0  0
   -0.5640   -4.2810   -3.4640 H   0  0  0  0  0
   -2.9450   -2.7480   -2.3290 H   0  0  0  0  0
    4.6410   -0.5200    0.3980 H   0  0  0  0  0
    4.6460    0.2490    2.0030 H   0  0  0  0  0
    6.7000   -1.0060    2.5990 H   0  0  0  0  0
    6.6950   -1.7750    0.9940 H   0  0  0  0  0
    6.8930    0.4540   -0.0750 H   0  0  0  0  0
    6.8980    1.2230    1.5300 H   0  0  0  0  0
    8.9520   -0.0320    2.1250 H   0  0  0  0  0
    8.9470   -0.8010    0.5200 H   0  0  0  0  0
    9.1440    1.4270   -0.5490 H   0  0  0  0  0
    9.1490    2.1970    1.0560 H   0  0  0  0  0
   11.2030    0.9420    1.6520 H   0  0  0  0  0
   11.1990    0.1720    0.0470 H   0  0  0  0  0
   11.3960    2.4010   -1.0220 H   0  0  0  0  0
   11.4010    3.1710    0.5830 H   0  0  0  0  0
   13.4550    1.9160    1.1780 H   0  0  0  0  0
   13.4500    1.1460   -0.4270 H   0  0  0  0  0
   -1.0710   -1.3900   -2.8940 H   0  0  0  0  0
   -0.9640   -2.0750   -4.4060 H   0  0  0  0  0
    2.2300   -3.7800   -2.0550 H   0  0  0  0  0
   -4.6330   -4.7920   -4.7410 H   0  0  0  0  0
  -12.8230    2.5430    0.7440 C   0  0  0  0  0
  -13.8230    3.0360   -0.3040 C   0  0  0  0  0
  -15.1380    3.4110    0.3820 C   0  0  0  0  0
  -16.1380    3.9040   -0.6650 C   0  0  0  0  0
  -17.4530    4.2790    0.0210 C   0  0  0  0  0
  -18.4520    4.7730   -1.0270 C   0  0  0  0  0
  -19.7670    5.1480   -0.3410 C   0  0  0  0  0
   13.9230    3.2480   -0.4490 C   0  0  0  0  0
   15.4320    3.0170   -0.3420 C   0  0  0  0  0
   16.1740    4.2220   -0.9220 C   0  0  0  0  0
   17.6830    3.9900   -0.8160 C   0  0  0  0  0
   18.4260    5.1960   -1.3960 C   0  0  0  0  0
   19.9350    4.9640   -1.2890 C   0  0  0  0  0
  -10.9160    0.8000    1.6130 H   0  0  0  0  0
   -6.4720    1.3060    0.2740 H   0  0  0  0  0
   -4.1570    0.4380    0.6350 H   0  0  0  0  0
   -1.8420   -0.4310    0.9970 H   0  0  0  0  0
    1.0130   -1.8320    3.9320 H   0  0  0  0  0
  -11.1010    3.0420   -0.4500 H   0  0  0  0  0
  -11.6910    1.3780   -0.6700 H   0  0  0  0  0
   -9.3760    0.5090   -0.3090 H   0  0  0  0  0
   -8.7860    2.1740   -0.0880 H   0  0  0  0  0
   -8.6010   -0.0680    1.9750 H   0  0  0  0  0
   -8.0110    1.5970    2.1950 H   0  0  0  0  0
   -5.6970    0.7280    2.5570 H   0  0  0  0  0
   -6.2870   -0.9370    2.3360 H   0  0  0  0  0
   -3.3820   -0.1400    2.9190 H   0  0  0  0  0
   -3.9720   -1.8050    2.6980 H   0  0  0  0  0
  -13.2310    1.6680    1.2520 H   0  0  0  0  0
  -12.6410    3.3330    1.4720 H   0  0  0  0  0
  -13.4160    3.9110   -0.8110 H   0  0  0  0  0
  -14.0060    2.2460   -1.0320 H   0  0  0  0  0
  -15.5450    2.5360    0.8900 H   0  0  0  0  0
  -14.9550    4.2010    1.1110 H   0  0  0  0  0
  -15.7300    4.7790   -1.1730 H   0  0  0  0  0
  -16.3200    3.1140   -1.3940 H   0  0  0  0  0
  -17.8600    3.4050    0.5280 H   0  0  0  0  0
  -17.2700    5.0700    0.7490 H   0  0  0  0  0
  -18.0450    5.6470   -1.5350 H   0  0  0  0  0
  -18.6350    3.9820   -1.7550 H   0  0  0  0  0
  -20.1750    4.2730    0.1670 H   0  0  0  0  0
  -19.5850    5.9380    0.3870 H   0  0  0  0  0
   13.6480    3.3750   -1.4960 H   0  0  0  0  0
   13.6530    4.1440    0.1090 H   0  0  0  0  0
   15.7070    2.8900    0.7050 H   0  0  0  0  0
   15.7020    2.1200   -0.9000 H   0  0  0  0  0
   15.8990    4.3490   -1.9690 H   0  0  0  0  0
   15.9040    5.1180   -0.3640 H   0  0  0  0  0
   17.9580    3.8640    0.2310 H   0  0  0  0  0
   17.9540    3.0940   -1.3740 H   0  0  0  0  0
   18.1510    5.3230   -2.4430 H   0  0  0  0  0
   18.1560    6.0920   -0.8380 H   0  0  0  0  0
   20.2100    4.8370   -0.2420 H   0  0  0  0  0
   20.2050    4.0680   -1.8470 H   0  0  0  0  0
  -20.7670    5.6410   -1.3890 C   0  0  0  0  0
   20.6780    6.1690   -1.8690 C   0  0  0  0  0
  -21.7040    5.9080   -0.9000 H   0  0  0  0  0
  -20.3600    6.5150   -1.8960 H   0  0  0  0  0
  -20.9500    4.8510   -2.1170 H   0  0  0  0  0
   20.4030    6.2970   -2.9160 H   0  0  0  0  0
   20.4070    7.0660   -1.3110 H   0  0  0  0  0
   21.7530    6.0050   -1.7940 H   0  0  0  0  0
  1  7  1  0  0  0
  1 38  1  0  0  0
  1 82  1  0  0  0
  2  9  1  0  0  0
  2 39  1  0  0  0
  2 83  1  0  0  0
  3 10  1  0  0  0
  3 40  1  0  0  0
  3 84  1  0  0  0
  4 12  1  0  0  0
  4 11  1  0  0  0
  4 41  1  0  0  0
  4 85  1  0  0  0
  5 42  1  0  0  0
  5 86  1  0  0  0
  6  5  1  0  0  0
  6 43  1  0  0  0
  7 69  1  0  0  0
  7 87  1  0  0  0
  7 88  1  0  0  0
  8  1  1  0  0  0
  8 89  1  0  0  0
  8 90  1  0  0  0
  9  8  1  0  0  0
  9 91  1  0  0  0
  9 92  1  0  0  0
 10  2  1  0  0  0
 10 93  1  0  0  0
 10 94  1  0  0  0
 11  3  1  0  0  0
 11 95  1  0  0  0
 11 96  1  0  0  0
 12 27  2  0  0  0
 13  6  1  0  0  0
 13 44  1  0  0  0
 13 45  1  0  0  0
 14 32  1  0  0  0
 14 46  1  0  0  0
 14 47  1  0  0  0
 15 16  1  0  0  0
 15 14  1  0  0  0
 15 48  1  0  0  0
 16 34  1  0  0  0
 17 36  2  0  0  0
 18 17  1  0  0  0
 18 19  1  0  0  0
 18 49  1  0  0  0
 18 50  1  0  0  0
 19 20  1  0  0  0
 19 51  1  0  0  0
 19 52  1  0  0  0
 20 53  1  0  0  0
 20 54  1  0  0  0
 21 20  1  0  0  0
 21 22  1  0  0  0
 21 55  1  0  0  0
 21 56  1  0  0  0
 22 23  1  0  0  0
 22 57  1  0  0  0
 22 58  1  0  0  0
 23 24  1  0  0  0
 23 59  1  0  0  0
 23 60  1  0  0  0
 24 25  1  0  0  0
 24 61  1  0  0  0
 24 62  1  0  0  0
 25 63  1  0  0  0
 25 64  1  0  0  0
 25 76  1  0  0  0
 26 15  1  0  0  0
 26 65  1  0  0  0
 26 66  1  0  0  0
 28  5  1  0  0  0
 28 12  1  0  0  0
 29 13  1  0  0  0
 30 37  2  0  0  0
 31 67  1  0  0  0
 32 37  1  0  0  0
 33 16  2  0  0  0
 34 68  1  0  0  0
 35  6  1  0  0  0
 35 17  1  0  0  0
 37 29  1  0  0  0
 37 31  1  0  0  0
 69 70  1  0  0  0
 69 97  1  0  0  0
 69 98  1  0  0  0
 70 71  1  0  0  0
 70 99  1  0  0  0
 70100  1  0  0  0
 71 72  1  0  0  0
 71101  1  0  0  0
 71102  1  0  0  0
 72 73  1  0  0  0
 72103  1  0  0  0
 72104  1  0  0  0
 73 74  1  0  0  0
 73105  1  0  0  0
 73106  1  0  0  0
 74 75  1  0  0  0
 74107  1  0  0  0
 74108  1  0  0  0
 75109  1  0  0  0
 75110  1  0  0  0
 75123  1  0  0  0
 76 77  1  0  0  0
 76111  1  0  0  0
 76112  1  0  0  0
 77 78  1  0  0  0
 77113  1  0  0  0
 77114  1  0  0  0
 78 79  1  0  0  0
 78115  1  0  0  0
 78116  1  0  0  0
 79 80  1  0  0  0
 79117  1  0  0  0
 79118  1  0  0  0
 80 81  1  0  0  0
 80119  1  0  0  0
 80120  1  0  0  0
 81121  1  0  0  0
 81122  1  0  0  0
 81124  1  0  0  0
123125  1  0  0  0
123126  1  0  0  0
123127  1  0  0  0
124128  1  0  0  0
124129  1  0  0  0
124130  1  0  0  0
M  END
$$$$
