Q8L
  CCTOOLS-0919241035

 48 51  0  0  1  0  0  0  0  0999 V2000
   -5.6750    1.4600   -2.1840 O   0  0  0  0  0
   -1.1340    1.1560    0.3670 C   0  0  0  0  0
   -6.6210   -2.1250    1.8540 O   0  0  0  0  0
   -6.6480   -0.4150    0.2270 C   0  0  0  0  0
   -7.1830   -1.6620    0.8840 C   0  0  0  0  0
   -8.8060   -3.4730    1.0330 C   0  0  0  0  0
   -4.7560    0.9040    0.0140 C   0  0  0  0  0
   -2.6910   -0.2680    0.8690 C   0  0  0  0  0
   -5.0880    0.4090   -1.4140 C   0  0  0  0  0
   -2.3560    1.7020   -0.0620 C   0  0  0  0  0
   -5.4860    0.0730    0.9320 O   0  0  0  0  0
   -1.2350    3.5550   -0.8320 C   0  0  0  0  0
    0.0380    1.9000    0.1520 C   0  0  0  0  0
    2.4810    2.2030    0.3200 C   0  0  0  0  0
   -8.2860   -2.2610    0.3940 N   0  0  0  0  0
   -6.1060   -0.7350   -1.1900 C   0  0  0  0  0
   -7.1540   -0.6820   -2.1600 O   0  0  0  0  0
    3.6780    1.4550    0.8470 C   0  0  0  0  0
    4.3660    0.5840    0.0240 C   0  0  0  0  0
    5.4640   -0.1030    0.5070 C   0  0  0  0  0
    5.8740    0.0820    1.8150 C   0  0  0  0  0
    5.1860    0.9530    2.6380 C   0  0  0  0  0
    4.0910    1.6430    2.1530 C   0  0  0  0  0
    6.5070   -1.4240   -0.7410 I   0  0  0  0  0
   -3.3190    0.7830    0.2680 N   0  0  0  0  0
   -1.4110   -0.0450    0.9310 N   0  0  0  0  0
   -2.3580    2.8940   -0.6510 N   0  0  0  0  0
   -0.0640    3.0820   -0.4460 N   0  0  0  0  0
    1.2690    1.4130    0.5540 N   0  0  0  0  0
   -5.9030    1.2050   -3.0880 H   0  0  0  0  0
   -7.4190    0.3530    0.1790 H   0  0  0  0  0
   -9.6950   -3.8100    0.5010 H   0  0  0  0  0
   -8.0460   -4.2540    1.0030 H   0  0  0  0  0
   -9.0630   -3.2550    2.0700 H   0  0  0  0  0
   -5.0660    1.9430    0.1280 H   0  0  0  0  0
   -3.1850   -1.1530    1.2420 H   0  0  0  0  0
   -4.1900    0.0330   -1.9050 H   0  0  0  0  0
   -1.2720    4.5210   -1.3150 H   0  0  0  0  0
    2.3950    3.1600    0.8350 H   0  0  0  0  0
    2.6020    2.3760   -0.7490 H   0  0  0  0  0
   -8.7350   -1.8910   -0.3820 H   0  0  0  0  0
   -5.6110   -1.7060   -1.2080 H   0  0  0  0  0
   -7.8180   -1.3780   -2.0610 H   0  0  0  0  0
    4.0450    0.4400   -0.9980 H   0  0  0  0  0
    6.7320   -0.4550    2.1930 H   0  0  0  0  0
    5.5060    1.0970    3.6600 H   0  0  0  0  0
    3.5540    2.3240    2.7970 H   0  0  0  0  0
    1.3310    0.5490    0.9900 H   0  0  0  0  0
  1  9  1  0  0  0
  1 30  1  0  0  0
  2 10  1  0  0  0
  3  5  2  0  0  0
  4 31  1  0  0  0
  5 15  1  0  0  0
  5  4  1  0  0  0
  6 15  1  0  0  0
  6 32  1  0  0  0
  6 33  1  0  0  0
  6 34  1  0  0  0
  7 11  1  0  0  0
  7 35  1  0  0  0
  8 25  1  0  0  0
  8 36  1  0  0  0
  9  7  1  0  0  0
  9 16  1  0  0  0
  9 37  1  0  0  0
 10 27  2  0  0  0
 11  4  1  0  0  0
 12 27  1  0  0  0
 12 38  1  0  0  0
 13  2  2  0  0  0
 13 28  1  0  0  0
 14 29  1  0  0  0
 14 39  1  0  0  0
 14 40  1  0  0  0
 15 41  1  0  0  0
 16  4  1  0  0  0
 16 17  1  0  0  0
 16 42  1  0  0  0
 17 43  1  0  0  0
 18 14  1  0  0  0
 19 18  2  0  0  0
 19 44  1  0  0  0
 20 19  1  0  0  0
 21 20  2  0  0  0
 21 22  1  0  0  0
 21 45  1  0  0  0
 22 23  2  0  0  0
 22 46  1  0  0  0
 23 18  1  0  0  0
 23 47  1  0  0  0
 24 20  1  0  0  0
 25 10  1  0  0  0
 25  7  1  0  0  0
 26  8  2  0  0  0
 26  2  1  0  0  0
 28 12  2  0  0  0
 29 13  1  0  0  0
 29 48  1  0  0  0
M  END
$$$$
