QUS
  CCTOOLS-0919241038

 20 20  0  0  1  0  0  0  0  0999 V2000
    2.9490   -0.3010    0.0870 C   0  0  0  0  0
    1.4990   -0.1790    0.4790 C   0  0  0  0  0
    0.6150   -0.4830   -0.7320 C   0  0  0  0  0
   -1.3560    0.9660   -0.2520 C   0  0  0  0  0
   -2.7960   -0.5850    0.1230 C   0  0  0  0  0
    1.2320    1.1870    0.9490 N   0  0  0  0  0
   -0.7880   -0.2490   -0.3840 N   0  0  0  0  0
   -2.6540    0.7590    0.0690 N   0  0  0  0  0
    3.5930    0.6910   -0.1610 O   0  0  0  0  0
    3.5250   -1.5110    0.0140 O   0  0  0  0  0
   -0.8090    2.0420   -0.4020 O   0  0  0  0  0
   -3.8150   -1.1930    0.3860 O   0  0  0  0  0
   -1.6030   -1.1200   -0.1690 O   0  0  0  0  0
    1.2770   -0.8870    1.2780 H   0  0  0  0  0
    0.8980    0.1670   -1.5600 H   0  0  0  0  0
    0.7480   -1.5240   -1.0260 H   0  0  0  0  0
    1.4500    1.8060    0.1820 H   0  0  0  0  0
    0.2370    1.2530    1.1010 H   0  0  0  0  0
   -3.3350    1.4310    0.2300 H   0  0  0  0  0
    4.4550   -1.5890   -0.2380 H   0  0  0  0  0
  1  2  1  0  0  0
  1  9  2  0  0  0
  1 10  1  0  0  0
  2  3  1  0  0  0
  2  6  1  0  0  0
  2 14  1  0  0  0
  3  7  1  0  0  0
  3 15  1  0  0  0
  3 16  1  0  0  0
  4  7  1  0  0  0
  4  8  1  0  0  0
  4 11  2  0  0  0
  5  8  1  0  0  0
  5 12  2  0  0  0
  5 13  1  0  0  0
  6 17  1  0  0  0
  6 18  1  0  0  0
  7 13  1  0  0  0
  8 19  1  0  0  0
 10 20  1  0  0  0
M  END
$$$$
