R0Z
  CCTOOLS-0919241039

 75 80  0  0  0  0  0  0  0  0999 V2000
   -5.9600    0.7820   -0.0470 C   0  0  0  0  0
   -6.7450    3.4380    0.3140 C   0  0  0  0  0
   -4.9940    1.8010    0.0470 C   0  0  0  0  0
   -1.2910    2.1540   -0.2600 C   0  0  0  0  0
   -0.4780    3.0050   -0.9970 C   0  0  0  0  0
    1.3870    1.5530   -0.6120 C   0  0  0  0  0
   -0.7570    1.0000    0.3000 C   0  0  0  0  0
    3.6610    1.8470    0.3330 C   0  0  0  0  0
   -4.2220   -4.4890    0.1270 C   0  0  0  0  0
   -5.9740   -2.8810    0.0780 C   0  0  0  0  0
   -6.8610   -3.9240    0.2680 C   0  0  0  0  0
   -8.2250   -3.6870    0.3480 C   0  0  0  0  0
   -8.7170   -2.4050    0.2400 C   0  0  0  0  0
   -7.8350   -1.3400    0.0510 C   0  0  0  0  0
   -6.4520   -1.5740   -0.0350 C   0  0  0  0  0
   -7.3210    1.1210    0.0450 C   0  0  0  0  0
   -8.3280    0.0470   -0.0510 C   0  0  0  0  0
   -7.7040    2.4510    0.2230 C   0  0  0  0  0
   -5.4010    3.1220    0.2270 C   0  0  0  0  0
   -3.5600    1.4730   -0.0440 C   0  0  0  0  0
    0.8580    2.7030   -1.1700 C   0  0  0  0  0
    0.5800    0.7030    0.1220 C   0  0  0  0  0
    2.8450    1.2260   -0.8030 C   0  0  0  0  0
    5.9210    2.2820    1.0920 C   0  0  0  0  0
    7.3730    2.2020    0.6230 C   0  0  0  0  0
    7.7500    0.7670    0.3540 C   0  0  0  0  0
    9.0960    0.4440    0.2670 C   0  0  0  0  0
    9.4880   -0.8590    0.0180 C   0  0  0  0  0
    8.5240   -1.8490   -0.1460 C   0  0  0  0  0
    7.1820   -1.5220   -0.0570 C   0  0  0  0  0
    6.7940   -0.2140    0.1950 C   0  0  0  0  0
    5.3210    0.0890    0.2910 C   0  0  0  0  0
    7.8530   -4.0950   -0.5500 C   0  0  0  0  0
   11.7410   -0.1030    0.1120 C   0  0  0  0  0
   -5.5770   -0.5230   -0.2320 N   0  0  0  0  0
   -2.6440    2.4600   -0.0770 N   0  0  0  0  0
    5.0820    1.5280    0.1460 N   0  0  0  0  0
   -4.6390   -3.1270    0.0020 O   0  0  0  0  0
   -9.5110    0.2940   -0.2060 O   0  0  0  0  0
   -3.2040    0.3110   -0.0900 O   0  0  0  0  0
    8.8980   -3.1330   -0.3930 O   0  0  0  0  0
   10.8090   -1.1710   -0.0670 O   0  0  0  0  0
   -7.0450    4.4660    0.4510 H   0  0  0  0  0
   -0.8900    3.9030   -1.4330 H   0  0  0  0  0
   -1.3870    0.3360    0.8740 H   0  0  0  0  0
    3.5270    2.9290    0.3260 H   0  0  0  0  0
    3.3200    1.4440    1.2860 H   0  0  0  0  0
   -3.1360   -4.5450    0.0480 H   0  0  0  0  0
   -4.5370   -4.8780    1.0950 H   0  0  0  0  0
   -4.6750   -5.0810   -0.6680 H   0  0  0  0  0
   -6.4870   -4.9340    0.3550 H   0  0  0  0  0
   -8.9060   -4.5120    0.4940 H   0  0  0  0  0
   -9.7800   -2.2250    0.3010 H   0  0  0  0  0
   -8.7510    2.7070    0.2920 H   0  0  0  0  0
   -4.6610    3.9050    0.3020 H   0  0  0  0  0
    1.4910    3.3640   -1.7430 H   0  0  0  0  0
    0.9950   -0.1940    0.5570 H   0  0  0  0  0
    2.9790    0.1440   -0.7970 H   0  0  0  0  0
    3.1850    1.6290   -1.7570 H   0  0  0  0  0
    5.8330    1.8450    2.0870 H   0  0  0  0  0
    5.6010    3.3230    1.1200 H   0  0  0  0  0
    7.4910    2.7840   -0.2910 H   0  0  0  0  0
    8.0260    2.6070    1.3960 H   0  0  0  0  0
    9.8420    1.2140    0.3940 H   0  0  0  0  0
    6.4330   -2.2890   -0.1840 H   0  0  0  0  0
    4.7920   -0.4450   -0.4980 H   0  0  0  0  0
    4.9490   -0.2420    1.2610 H   0  0  0  0  0
    7.2560   -4.1340    0.3610 H   0  0  0  0  0
    7.2180   -3.8090   -1.3880 H   0  0  0  0  0
    8.2880   -5.0760   -0.7420 H   0  0  0  0  0
   12.7560   -0.4870    0.0200 H   0  0  0  0  0
   11.5700    0.6590   -0.6490 H   0  0  0  0  0
   11.6060    0.3350    1.1010 H   0  0  0  0  0
   -4.6660   -0.7120   -0.5080 H   0  0  0  0  0
   -2.9220    3.3840    0.0260 H   0  0  0  0  0
  1 35  1  0  0  0
  2 18  2  0  0  0
  2 19  1  0  0  0
  2 43  1  0  0  0
  3  1  1  0  0  0
  3 20  1  0  0  0
  4  5  2  0  0  0
  4  7  1  0  0  0
  5 21  1  0  0  0
  5 44  1  0  0  0
  6 23  1  0  0  0
  7 22  2  0  0  0
  7 45  1  0  0  0
  8 37  1  0  0  0
  8 46  1  0  0  0
  8 47  1  0  0  0
  9 48  1  0  0  0
  9 49  1  0  0  0
  9 50  1  0  0  0
 10 11  1  0  0  0
 10 38  1  0  0  0
 11 51  1  0  0  0
 12 11  2  0  0  0
 12 52  1  0  0  0
 13 12  1  0  0  0
 13 53  1  0  0  0
 14 13  2  0  0  0
 14 15  1  0  0  0
 15 10  2  0  0  0
 16 17  1  0  0  0
 16  1  2  0  0  0
 17 14  1  0  0  0
 18 16  1  0  0  0
 18 54  1  0  0  0
 19  3  2  0  0  0
 19 55  1  0  0  0
 20 40  2  0  0  0
 21  6  2  0  0  0
 21 56  1  0  0  0
 22  6  1  0  0  0
 22 57  1  0  0  0
 23  8  1  0  0  0
 23 58  1  0  0  0
 23 59  1  0  0  0
 24 25  1  0  0  0
 24 60  1  0  0  0
 24 61  1  0  0  0
 25 62  1  0  0  0
 25 63  1  0  0  0
 26 25  1  0  0  0
 26 27  2  0  0  0
 27 64  1  0  0  0
 28 27  1  0  0  0
 28 42  1  0  0  0
 29 28  2  0  0  0
 30 31  2  0  0  0
 30 29  1  0  0  0
 30 65  1  0  0  0
 31 26  1  0  0  0
 32 31  1  0  0  0
 32 37  1  0  0  0
 32 66  1  0  0  0
 32 67  1  0  0  0
 33 41  1  0  0  0
 33 68  1  0  0  0
 33 69  1  0  0  0
 33 70  1  0  0  0
 34 71  1  0  0  0
 34 72  1  0  0  0
 34 73  1  0  0  0
 35 15  1  0  0  0
 35 74  1  0  0  0
 36 20  1  0  0  0
 36  4  1  0  0  0
 36 75  1  0  0  0
 37 24  1  0  0  0
 38  9  1  0  0  0
 39 17  2  0  0  0
 41 29  1  0  0  0
 42 34  1  0  0  0
M  END
$$$$
