R16
  CCTOOLS-0919241039

 50 49  0  0  0  0  0  0  0  0999 V2000
    9.3730   -0.3540    0.0010 C   0  0  0  0  0
    8.1160    0.5170   -0.0020 C   0  0  0  0  0
    6.8750   -0.3780    0.0010 C   0  0  0  0  0
    5.6170    0.4940   -0.0020 C   0  0  0  0  0
    4.3760   -0.4010    0.0010 C   0  0  0  0  0
    3.1190    0.4710   -0.0020 C   0  0  0  0  0
    1.8780   -0.4240    0.0010 C   0  0  0  0  0
    0.6200    0.4470   -0.0010 C   0  0  0  0  0
   -0.6200   -0.4470    0.0010 C   0  0  0  0  0
   -1.8780    0.4240   -0.0010 C   0  0  0  0  0
   -3.1190   -0.4710    0.0020 C   0  0  0  0  0
   -4.3760    0.4010   -0.0010 C   0  0  0  0  0
   -5.6170   -0.4940    0.0020 C   0  0  0  0  0
   -6.8750    0.3780   -0.0010 C   0  0  0  0  0
   -8.1160   -0.5170    0.0020 C   0  0  0  0  0
   -9.3730    0.3540   -0.0010 C   0  0  0  0  0
    9.3790   -0.9810    0.8930 H   0  0  0  0  0
    9.3790   -0.9860   -0.8870 H   0  0  0  0  0
   10.2570    0.2830   -0.0010 H   0  0  0  0  0
    8.1100    1.1500    0.8860 H   0  0  0  0  0
    8.1100    1.1440   -0.8940 H   0  0  0  0  0
    6.8810   -1.0100   -0.8870 H   0  0  0  0  0
    6.8810   -1.0040    0.8930 H   0  0  0  0  0
    5.6110    1.1260    0.8860 H   0  0  0  0  0
    5.6110    1.1200   -0.8940 H   0  0  0  0  0
    4.3820   -1.0330   -0.8870 H   0  0  0  0  0
    4.3820   -1.0270    0.8930 H   0  0  0  0  0
    3.1130    1.1030    0.8860 H   0  0  0  0  0
    3.1130    1.0970   -0.8940 H   0  0  0  0  0
    1.8840   -1.0560   -0.8870 H   0  0  0  0  0
    1.8840   -1.0510    0.8930 H   0  0  0  0  0
    0.6150    1.0800    0.8860 H   0  0  0  0  0
    0.6150    1.0740   -0.8930 H   0  0  0  0  0
   -0.6150   -1.0800   -0.8860 H   0  0  0  0  0
   -0.6150   -1.0740    0.8930 H   0  0  0  0  0
   -1.8840    1.0560    0.8870 H   0  0  0  0  0
   -1.8840    1.0510   -0.8930 H   0  0  0  0  0
   -3.1130   -1.1030   -0.8860 H   0  0  0  0  0
   -3.1130   -1.0970    0.8940 H   0  0  0  0  0
   -4.3820    1.0330    0.8870 H   0  0  0  0  0
   -4.3820    1.0270   -0.8930 H   0  0  0  0  0
   -5.6110   -1.1260   -0.8860 H   0  0  0  0  0
   -5.6110   -1.1200    0.8940 H   0  0  0  0  0
   -6.8810    1.0100    0.8870 H   0  0  0  0  0
   -6.8810    1.0040   -0.8930 H   0  0  0  0  0
   -8.1100   -1.1500   -0.8860 H   0  0  0  0  0
   -8.1100   -1.1440    0.8940 H   0  0  0  0  0
   -9.3790    0.9860    0.8870 H   0  0  0  0  0
   -9.3790    0.9810   -0.8930 H   0  0  0  0  0
  -10.2570   -0.2830    0.0010 H   0  0  0  0  0
  1  2  1  0  0  0
  1 17  1  0  0  0
  1 18  1  0  0  0
  1 19  1  0  0  0
  2  3  1  0  0  0
  2 20  1  0  0  0
  2 21  1  0  0  0
  3  4  1  0  0  0
  3 22  1  0  0  0
  3 23  1  0  0  0
  4  5  1  0  0  0
  4 24  1  0  0  0
  4 25  1  0  0  0
  5  6  1  0  0  0
  5 26  1  0  0  0
  5 27  1  0  0  0
  6  7  1  0  0  0
  6 28  1  0  0  0
  6 29  1  0  0  0
  7  8  1  0  0  0
  7 30  1  0  0  0
  7 31  1  0  0  0
  8  9  1  0  0  0
  8 32  1  0  0  0
  8 33  1  0  0  0
  9 10  1  0  0  0
  9 34  1  0  0  0
  9 35  1  0  0  0
 10 11  1  0  0  0
 10 36  1  0  0  0
 10 37  1  0  0  0
 11 12  1  0  0  0
 11 38  1  0  0  0
 11 39  1  0  0  0
 12 13  1  0  0  0
 12 40  1  0  0  0
 12 41  1  0  0  0
 13 14  1  0  0  0
 13 42  1  0  0  0
 13 43  1  0  0  0
 14 15  1  0  0  0
 14 44  1  0  0  0
 14 45  1  0  0  0
 15 16  1  0  0  0
 15 46  1  0  0  0
 15 47  1  0  0  0
 16 48  1  0  0  0
 16 49  1  0  0  0
 16 50  1  0  0  0
M  END
$$$$
