R5R
  CCTOOLS-0919241040

 44 46  0  0  0  0  0  0  0  0999 V2000
    4.1920    1.9970    0.3230 C   0  0  0  0  0
    1.8030    1.8840    0.2820 C   0  0  0  0  0
    5.5610    0.0270   -0.4480 C   0  0  0  0  0
   -0.5520   -3.8770   -1.3920 C   0  0  0  0  0
   -5.9900    1.0360   -0.0360 C   0  0  0  0  0
   -4.4840    1.0730   -0.0250 C   0  0  0  0  0
   -3.7710   -0.0310    0.4060 C   0  0  0  0  0
   -2.3910   -0.0030    0.4180 C   0  0  0  0  0
   -1.7160    1.1400   -0.0040 C   0  0  0  0  0
   -2.4390    2.2500   -0.4380 C   0  0  0  0  0
   -3.8190    2.2080   -0.4510 C   0  0  0  0  0
   -0.2330    1.1760    0.0070 C   0  0  0  0  0
    0.5930    0.1690   -0.3910 C   0  0  0  0  0
    3.0880    0.0280   -0.4570 C   0  0  0  0  0
    4.2320    0.6910   -0.1920 C   0  0  0  0  0
    2.9910    2.5920    0.5590 C   0  0  0  0  0
    0.1720   -1.1780   -0.9210 C   0  0  0  0  0
    0.1650   -2.1810    0.2040 C   0  0  0  0  0
   -0.1890   -4.4350    1.0560 C   0  0  0  0  0
    1.8750    0.6090   -0.2200 N   0  0  0  0  0
    0.5250    2.2070    0.4120 N   0  0  0  0  0
   -0.1820   -3.4600   -0.0370 N   0  0  0  0  0
    0.4720   -1.8360    1.3250 O   0  0  0  0  0
    5.1090    2.5260    0.5350 H   0  0  0  0  0
    6.3660    0.7090   -0.1760 H   0  0  0  0  0
    5.6350   -0.8800    0.1510 H   0  0  0  0  0
    5.6420   -0.2280   -1.5050 H   0  0  0  0  0
    0.3380   -4.2090   -1.9260 H   0  0  0  0  0
   -1.2700   -4.6950   -1.3370 H   0  0  0  0  0
   -1.0010   -3.0350   -1.9210 H   0  0  0  0  0
   -6.3690    1.3930    0.9220 H   0  0  0  0  0
   -6.3630    1.6770   -0.8360 H   0  0  0  0  0
   -6.3280    0.0140   -0.2030 H   0  0  0  0  0
   -4.2950   -0.9170    0.7330 H   0  0  0  0  0
   -1.8360   -0.8660    0.7560 H   0  0  0  0  0
   -1.9210    3.1380   -0.7660 H   0  0  0  0  0
   -4.3800    3.0680   -0.7870 H   0  0  0  0  0
    3.1310   -0.9760   -0.8530 H   0  0  0  0  0
    2.9480    3.5950    0.9550 H   0  0  0  0  0
   -0.8280   -1.1030   -1.3480 H   0  0  0  0  0
    0.8730   -1.5000   -1.6910 H   0  0  0  0  0
    0.1130   -3.9450    1.9820 H   0  0  0  0  0
   -1.1920   -4.8450    1.1720 H   0  0  0  0  0
    0.5090   -5.2420    0.8290 H   0  0  0  0  0
  1 15  1  0  0  0
  1 24  1  0  0  0
  2 21  2  0  0  0
  2 20  1  0  0  0
  3 25  1  0  0  0
  3 26  1  0  0  0
  3 27  1  0  0  0
  4 28  1  0  0  0
  4 29  1  0  0  0
  4 30  1  0  0  0
  5 31  1  0  0  0
  5 32  1  0  0  0
  5 33  1  0  0  0
  6  7  1  0  0  0
  6  5  1  0  0  0
  7 34  1  0  0  0
  8  7  2  0  0  0
  8 35  1  0  0  0
  9  8  1  0  0  0
 10  9  2  0  0  0
 10 11  1  0  0  0
 10 36  1  0  0  0
 11  6  2  0  0  0
 11 37  1  0  0  0
 12 13  2  0  0  0
 12  9  1  0  0  0
 13 17  1  0  0  0
 14 38  1  0  0  0
 15  3  1  0  0  0
 15 14  2  0  0  0
 16  1  2  0  0  0
 16  2  1  0  0  0
 16 39  1  0  0  0
 17 40  1  0  0  0
 17 41  1  0  0  0
 18 17  1  0  0  0
 18 22  1  0  0  0
 19 22  1  0  0  0
 19 42  1  0  0  0
 19 43  1  0  0  0
 19 44  1  0  0  0
 20 14  1  0  0  0
 20 13  1  0  0  0
 21 12  1  0  0  0
 22  4  1  0  0  0
 23 18  2  0  0  0
M  END
$$$$
