RBR
  CCTOOLS-0919241041

 91 96  0  0  1  0  0  0  0  0999 V2000
    1.0750   -1.3670   -0.4570 C   0  0  0  0  0
    1.2190    1.0540    0.2350 C   0  0  0  0  0
    0.6030    0.4260   -2.0950 C   0  0  0  0  0
   -0.8530    0.4740   -1.6010 C   0  0  0  0  0
   -1.2720   -0.8520   -0.9760 C   0  0  0  0  0
   -0.3130   -1.2740    0.1480 C   0  0  0  0  0
   -0.7470   -2.6350    0.6940 C   0  0  0  0  0
   -2.1680   -2.5290    1.2530 C   0  0  0  0  0
   -3.1250   -2.1000    0.1390 C   0  0  0  0  0
   -4.5450   -1.9930    0.6990 C   0  0  0  0  0
   -5.5020   -1.5670   -0.4170 C   0  0  0  0  0
    2.2080   -1.7100    0.5170 C   0  0  0  0  0
   -5.0680   -0.2080   -0.9690 C   0  0  0  0  0
   -3.6480   -0.3140   -1.5280 C   0  0  0  0  0
   -2.6900   -0.7410   -0.4140 C   0  0  0  0  0
   -2.7140    0.2980    0.7080 C   0  0  0  0  0
   -4.6010    2.0910   -0.3640 C   0  0  0  0  0
   -4.5910    3.0830    0.8020 C   0  0  0  0  0
   -6.4180    1.9230    1.8290 C   0  0  0  0  0
    3.4670   -1.1600   -0.2070 C   0  0  0  0  0
   -6.4470    0.9200    0.6720 C   0  0  0  0  0
    3.7160    0.4000    1.6030 C   0  0  0  0  0
    4.7020    1.0320    2.5520 C   0  0  0  0  0
    4.8440    2.3340    2.5770 C   0  0  0  0  0
    5.5380    0.0400    0.0680 C   0  0  0  0  0
    6.6440   -1.0440    0.0360 C   0  0  0  0  0
    6.4600   -1.7200    1.4210 C   0  0  0  0  0
    4.9320   -1.6760    1.6290 C   0  0  0  0  0
    2.9700   -0.0500   -1.1660 C   0  0  0  0  0
    4.4310    1.7170   -1.8150 C   0  0  0  0  0
    5.0810    3.0620   -1.6120 C   0  0  0  0  0
    1.4710    0.0660   -0.9060 C   0  0  0  0  0
   -5.0950    0.7900    0.1090 N   0  0  0  0  0
    4.4050   -0.5970    0.7730 N   0  3  0  0  0
   -5.4740   -2.5380   -1.4650 O   0  0  0  0  0
   -5.9060    3.1720    1.3570 O   0  0  0  0  0
    3.6310    1.2080   -0.8650 O   0  0  0  0  0
    4.6310    1.0980   -2.8330 O   0  0  0  0  0
    1.0730   -2.0460   -1.3090 H   0  0  0  0  0
    1.6700    0.6730    1.1520 H   0  0  0  0  0
    1.6630    2.0180   -0.0140 H   0  0  0  0  0
    0.1460    1.1740    0.3810 H   0  0  0  0  0
    0.7060   -0.3320   -2.8720 H   0  0  0  0  0
    0.8940    1.4000   -2.4870 H   0  0  0  0  0
   -0.9510    1.2650   -0.8580 H   0  0  0  0  0
   -1.5080    0.6930   -2.4440 H   0  0  0  0  0
   -1.2580   -1.6240   -1.7450 H   0  0  0  0  0
   -0.3210   -0.5240    0.9390 H   0  0  0  0  0
   -0.7260   -3.3720   -0.1090 H   0  0  0  0  0
   -0.0670   -2.9420    1.4870 H   0  0  0  0  0
   -2.4770   -3.4980    1.6440 H   0  0  0  0  0
   -2.1890   -1.7910    2.0540 H   0  0  0  0  0
   -3.1050   -2.8390   -0.6610 H   0  0  0  0  0
   -4.8540   -2.9610    1.0930 H   0  0  0  0  0
   -4.5650   -1.2520    1.4980 H   0  0  0  0  0
   -6.5130   -1.4910   -0.0180 H   0  0  0  0  0
    2.0610   -1.2070    1.4720 H   0  0  0  0  0
    2.2810   -2.7890    0.6580 H   0  0  0  0  0
   -5.7490    0.0960   -1.7630 H   0  0  0  0  0
   -3.6270   -1.0540   -2.3280 H   0  0  0  0  0
   -3.3390    0.6540   -1.9220 H   0  0  0  0  0
   -2.5430    1.2900    0.2890 H   0  0  0  0  0
   -3.6850    0.2760    1.2040 H   0  0  0  0  0
   -1.9310    0.0700    1.4320 H   0  0  0  0  0
   -5.2550    2.4640   -1.1530 H   0  0  0  0  0
   -3.5900    1.9770   -0.7540 H   0  0  0  0  0
   -3.8960    2.7370    1.5670 H   0  0  0  0  0
   -4.2800    4.0640    0.4430 H   0  0  0  0  0
   -7.4290    2.0650    2.2120 H   0  0  0  0  0
   -5.7770    1.5440    2.6240 H   0  0  0  0  0
    3.9500   -1.9550   -0.7740 H   0  0  0  0  0
   -6.7830   -0.0500    1.0400 H   0  0  0  0  0
   -7.1310    1.2730   -0.0990 H   0  0  0  0  0
    2.9240   -0.0860    2.1730 H   0  0  0  0  0
    3.2840    1.1690    0.9630 H   0  0  0  0  0
    5.2920    0.4120    3.2100 H   0  0  0  0  0
    5.5510    2.7870    3.2570 H   0  0  0  0  0
    4.2540    2.9550    1.9190 H   0  0  0  0  0
    5.8820    0.9170    0.6170 H   0  0  0  0  0
    5.2480    0.3150   -0.9460 H   0  0  0  0  0
    6.4710   -1.7550   -0.7710 H   0  0  0  0  0
    7.6320   -0.5920   -0.0500 H   0  0  0  0  0
    6.8170   -2.7500    1.3970 H   0  0  0  0  0
    6.9720   -1.1520    2.1980 H   0  0  0  0  0
    4.4900   -2.6290    1.3370 H   0  0  0  0  0
    4.7060   -1.4640    2.6740 H   0  0  0  0  0
    3.1520   -0.3350   -2.2010 H   0  0  0  0  0
    5.6890    3.3070   -2.4820 H   0  0  0  0  0
    4.3100    3.8220   -1.4820 H   0  0  0  0  0
    5.7120    3.0300   -0.7240 H   0  0  0  0  0
   -5.7380   -3.4250   -1.1860 H   0  0  0  0  0
  1  6  1  0  0  0
  1 32  1  0  0  0
  1 39  1  0  0  0
  2 40  1  0  0  0
  2 41  1  0  0  0
  2 42  1  0  0  0
  3  4  1  0  0  0
  3 43  1  0  0  0
  3 44  1  0  0  0
  4 45  1  0  0  0
  4 46  1  0  0  0
  5 15  1  0  0  0
  5  4  1  0  0  0
  5 47  1  0  0  0
  6  5  1  0  0  0
  6 48  1  0  0  0
  7  8  1  0  0  0
  7  6  1  0  0  0
  7 49  1  0  0  0
  7 50  1  0  0  0
  8  9  1  0  0  0
  8 51  1  0  0  0
  8 52  1  0  0  0
  9 10  1  0  0  0
  9 15  1  0  0  0
  9 53  1  0  0  0
 10 11  1  0  0  0
 10 54  1  0  0  0
 10 55  1  0  0  0
 11 13  1  0  0  0
 11 56  1  0  0  0
 12  1  1  0  0  0
 12 57  1  0  0  0
 12 58  1  0  0  0
 13 33  1  0  0  0
 13 59  1  0  0  0
 14 13  1  0  0  0
 14 60  1  0  0  0
 14 61  1  0  0  0
 15 16  1  0  0  0
 15 14  1  0  0  0
 16 62  1  0  0  0
 16 63  1  0  0  0
 16 64  1  0  0  0
 17 18  1  0  0  0
 17 65  1  0  0  0
 17 66  1  0  0  0
 18 36  1  0  0  0
 18 67  1  0  0  0
 18 68  1  0  0  0
 19 36  1  0  0  0
 19 69  1  0  0  0
 19 70  1  0  0  0
 20 12  1  0  0  0
 20 29  1  0  0  0
 20 71  1  0  0  0
 21 19  1  0  0  0
 21 72  1  0  0  0
 21 73  1  0  0  0
 22 34  1  0  0  0
 22 74  1  0  0  0
 22 75  1  0  0  0
 23 22  1  0  0  0
 23 76  1  0  0  0
 24 23  2  0  0  0
 24 77  1  0  0  0
 24 78  1  0  0  0
 25 26  1  0  0  0
 25 34  1  0  0  0
 25 79  1  0  0  0
 25 80  1  0  0  0
 26 81  1  0  0  0
 26 82  1  0  0  0
 27 28  1  0  0  0
 27 26  1  0  0  0
 27 83  1  0  0  0
 27 84  1  0  0  0
 28 34  1  0  0  0
 28 85  1  0  0  0
 28 86  1  0  0  0
 29 32  1  0  0  0
 29 87  1  0  0  0
 30 38  2  0  0  0
 30 31  1  0  0  0
 31 88  1  0  0  0
 31 89  1  0  0  0
 31 90  1  0  0  0
 32  2  1  0  0  0
 32  3  1  0  0  0
 33 21  1  0  0  0
 33 17  1  0  0  0
 34 20  1  0  0  0
 35 11  1  0  0  0
 35 91  1  0  0  0
 37 29  1  0  0  0
 37 30  1  0  0  0
M  CHG  1  34   1
M  END
$$$$
