S12
  CCTOOLS-0919241044

 81 80  0  0  1  0  0  0  0  0999 V2000
   12.9770   -1.2450    1.2330 C   0  0  0  0  0
   11.8960    0.9050    0.8960 N   0  0  0  0  0
    8.2250   -0.9140   -0.7110 P   0  0  0  0  0
    9.4510   -0.5060    0.2490 O   0  0  0  0  0
    5.6220   -0.3260   -0.8580 C   0  0  0  0  0
    6.9050   -0.1060   -0.2660 O   0  0  0  0  0
    4.5950    0.6020   -0.2060 C   0  0  0  0  0
    7.9740   -2.3680   -0.6010 O   0  0  0  0  0
    3.2010    0.2820   -0.7500 C   0  0  0  0  0
    8.5910   -0.5460   -2.2350 O   0  0  0  0  0
    0.9290    0.9160   -0.4070 C   0  0  0  0  0
   -0.1530    1.7100    0.2780 C   0  0  0  0  0
   -1.5130    1.3370   -0.3160 C   0  0  0  0  0
   -2.6110    2.1430    0.3800 C   0  0  0  0  0
   -3.9710    1.7700   -0.2140 C   0  0  0  0  0
   11.6630   -0.5080    1.2240 C   0  0  0  0  0
   10.7360   -1.1290    0.1770 C   0  0  0  0  0
   -5.0700    2.5760    0.4810 C   0  0  0  0  0
   -6.4300    2.2030   -0.1130 C   0  0  0  0  0
    4.9220    1.9610   -0.5060 O   0  0  0  0  0
   -7.5290    3.0090    0.5830 C   0  0  0  0  0
   -8.8680    2.6420   -0.0020 C   0  0  0  0  0
   -9.8330    2.2280    0.7810 C   0  0  0  0  0
    0.6430    0.1320   -1.2810 O   0  0  0  0  0
    2.2120    1.0790   -0.0470 O   0  0  0  0  0
   13.9330   -0.7830    0.6570 O   0  0  0  0  0
   13.0860   -2.4140    1.8850 O   0  0  0  0  0
   12.3250    0.9980   -0.0130 H   0  0  0  0  0
   11.0390    1.4350    0.9470 H   0  0  0  0  0
    5.6740   -0.1170   -1.9260 H   0  0  0  0  0
    5.3240   -1.3630   -0.7040 H   0  0  0  0  0
    4.6060    0.4560    0.8740 H   0  0  0  0  0
    3.1640    0.5130   -1.8140 H   0  0  0  0  0
    2.9870   -0.7770   -0.6000 H   0  0  0  0  0
   -0.1480    1.4850    1.3450 H   0  0  0  0  0
    0.0290    2.7740    0.1300 H   0  0  0  0  0
   -1.5170    1.5620   -1.3830 H   0  0  0  0  0
   -2.6070    1.9180    1.4460 H   0  0  0  0  0
   -3.9760    1.9950   -1.2810 H   0  0  0  0  0
   -4.1530    0.7050   -0.0670 H   0  0  0  0  0
   11.1990   -0.5800    2.2080 H   0  0  0  0  0
   10.6330   -2.1970    0.3700 H   0  0  0  0  0
   11.1580   -0.9780   -0.8160 H   0  0  0  0  0
   -5.0650    2.3510    1.5480 H   0  0  0  0  0
   -6.4340    2.4280   -1.1790 H   0  0  0  0  0
    4.9310    2.1640   -1.4510 H   0  0  0  0  0
   -7.5240    2.7840    1.6500 H   0  0  0  0  0
   -9.6700    2.1510    1.8450 H   0  0  0  0  0
  -11.1730    1.8610    0.1960 C   0  0  0  0  0
  -11.5400    0.4370    0.6170 C   0  0  0  0  0
  -12.9000    0.0640    0.0220 C   0  0  0  0  0
  -13.2670   -1.3600    0.4430 C   0  0  0  0  0
  -14.6270   -1.7330   -0.1510 C   0  0  0  0  0
  -14.9940   -3.1580    0.2700 C   0  0  0  0  0
  -16.3540   -3.5300   -0.3240 C   0  0  0  0  0
  -16.7210   -4.9550    0.0970 C   0  0  0  0  0
    8.7680    0.3930   -2.3810 H   0  0  0  0  0
   -1.6940    0.2720   -0.1690 H   0  0  0  0  0
   -2.4300    3.2070    0.2320 H   0  0  0  0  0
   -4.8890    3.6400    0.3340 H   0  0  0  0  0
   -6.6110    1.1380    0.0350 H   0  0  0  0  0
   -7.3470    4.0740    0.4350 H   0  0  0  0  0
   -9.0310    2.7190   -1.0670 H   0  0  0  0  0
   13.9490   -2.8500    1.8620 H   0  0  0  0  0
  -11.9310    2.5550    0.5600 H   0  0  0  0  0
  -11.1220    1.9170   -0.8920 H   0  0  0  0  0
  -10.7820   -0.2570    0.2520 H   0  0  0  0  0
  -11.5910    0.3810    1.7040 H   0  0  0  0  0
  -13.6580    0.7570    0.3870 H   0  0  0  0  0
  -12.8490    0.1200   -1.0650 H   0  0  0  0  0
  -12.5090   -2.0540    0.0790 H   0  0  0  0  0
  -13.3180   -1.4160    1.5310 H   0  0  0  0  0
  -15.3850   -1.0400    0.2130 H   0  0  0  0  0
  -14.5760   -1.6770   -1.2380 H   0  0  0  0  0
  -14.2360   -3.8510   -0.0940 H   0  0  0  0  0
  -15.0450   -3.2130    1.3570 H   0  0  0  0  0
  -17.1120   -2.8370    0.0400 H   0  0  0  0  0
  -16.3030   -3.4740   -1.4110 H   0  0  0  0  0
  -17.6900   -5.2200   -0.3260 H   0  0  0  0  0
  -15.9630   -5.6480   -0.2670 H   0  0  0  0  0
  -16.7720   -5.0110    1.1840 H   0  0  0  0  0
  1 16  1  0  0  0
  1 26  2  0  0  0
  1 27  1  0  0  0
  2 16  1  0  0  0
  2 28  1  0  0  0
  2 29  1  0  0  0
  3  4  1  0  0  0
  3  6  1  0  0  0
  3  8  2  0  0  0
  3 10  1  0  0  0
  4 17  1  0  0  0
  5  6  1  0  0  0
  5  7  1  0  0  0
  5 30  1  0  0  0
  5 31  1  0  0  0
  7  9  1  0  0  0
  7 20  1  0  0  0
  7 32  1  0  0  0
  9 25  1  0  0  0
  9 33  1  0  0  0
  9 34  1  0  0  0
 10 57  1  0  0  0
 11 12  1  0  0  0
 11 24  2  0  0  0
 11 25  1  0  0  0
 12 13  1  0  0  0
 12 35  1  0  0  0
 12 36  1  0  0  0
 13 14  1  0  0  0
 13 37  1  0  0  0
 13 58  1  0  0  0
 14 15  1  0  0  0
 14 38  1  0  0  0
 14 59  1  0  0  0
 15 18  1  0  0  0
 15 39  1  0  0  0
 15 40  1  0  0  0
 16 17  1  0  0  0
 16 41  1  0  0  0
 17 42  1  0  0  0
 17 43  1  0  0  0
 18 19  1  0  0  0
 18 44  1  0  0  0
 18 60  1  0  0  0
 19 21  1  0  0  0
 19 45  1  0  0  0
 19 61  1  0  0  0
 20 46  1  0  0  0
 21 22  1  0  0  0
 21 47  1  0  0  0
 21 62  1  0  0  0
 22 23  2  0  0  0
 22 63  1  0  0  0
 23 48  1  0  0  0
 23 49  1  0  0  0
 27 64  1  0  0  0
 49 50  1  0  0  0
 49 65  1  0  0  0
 49 66  1  0  0  0
 50 51  1  0  0  0
 50 67  1  0  0  0
 50 68  1  0  0  0
 51 52  1  0  0  0
 51 69  1  0  0  0
 51 70  1  0  0  0
 52 53  1  0  0  0
 52 71  1  0  0  0
 52 72  1  0  0  0
 53 54  1  0  0  0
 53 73  1  0  0  0
 53 74  1  0  0  0
 54 55  1  0  0  0
 54 75  1  0  0  0
 54 76  1  0  0  0
 55 56  1  0  0  0
 55 77  1  0  0  0
 55 78  1  0  0  0
 56 79  1  0  0  0
 56 80  1  0  0  0
 56 81  1  0  0  0
M  END
$$$$
