S1P
  CCTOOLS-0919241045

 63 62  0  0  1  0  0  0  0  0999 V2000
   -6.2320    0.2350   -0.1030 C   0  0  0  0  0
   -6.6760   -1.0410    0.3640 O   0  0  0  0  0
   -4.8450    0.5330    0.4700 C   0  0  0  0  0
   -4.9350    0.6640    1.9300 N   0  0  0  0  0
   -4.3170    1.8390   -0.1270 C   0  0  0  0  0
   -4.2280    1.7120   -1.5480 O   0  0  0  0  0
   -2.9500    2.1330    0.4370 C   0  0  0  0  0
   -1.9370    2.3290   -0.3700 C   0  0  0  0  0
   -0.5710    2.6220    0.1940 C   0  0  0  0  0
    0.4380    1.6150   -0.3620 C   0  0  0  0  0
    1.8250    1.9130    0.2100 C   0  0  0  0  0
    2.8330    0.9050   -0.3450 C   0  0  0  0  0
    4.2210    1.2040    0.2270 C   0  0  0  0  0
    5.2290    0.1960   -0.3290 C   0  0  0  0  0
    6.6160    0.4940    0.2440 C   0  0  0  0  0
    7.6250   -0.5130   -0.3120 C   0  0  0  0  0
    9.0120   -0.2150    0.2600 C   0  0  0  0  0
   10.0200   -1.2230   -0.2950 C   0  0  0  0  0
   11.4070   -0.9240    0.2770 C   0  0  0  0  0
   12.4160   -1.9320   -0.2790 C   0  0  0  0  0
   13.8030   -1.6340    0.2940 C   0  0  0  0  0
   -8.0980   -1.6770   -0.0410 P   0  0  0  0  0
   -8.1230   -1.9720   -1.6240 O   0  0  0  0  0
   -8.3200   -3.0520    0.7650 O   0  0  0  0  0
   -9.1790   -0.7250    0.3000 O   0  0  0  0  0
   -6.1810    0.2260   -1.1910 H   0  0  0  0  0
   -6.9320    1.0040    0.2220 H   0  0  0  0  0
   -4.1650   -0.2820    0.2190 H   0  0  0  0  0
   -4.0220    0.7970    2.3390 H   0  0  0  0  0
   -5.5600    1.4130    2.1880 H   0  0  0  0  0
   -4.9960    2.6540    0.1230 H   0  0  0  0  0
   -3.6390    1.0040   -1.8440 H   0  0  0  0  0
   -2.8060    2.1820    1.5060 H   0  0  0  0  0
   -2.0810    2.2800   -1.4390 H   0  0  0  0  0
   -0.2700    3.6310   -0.0890 H   0  0  0  0  0
   -0.6010    2.5440    1.2800 H   0  0  0  0  0
    0.1370    0.6060   -0.0790 H   0  0  0  0  0
    0.4690    1.6930   -1.4490 H   0  0  0  0  0
    2.1260    2.9220   -0.0730 H   0  0  0  0  0
    1.7940    1.8340    1.2970 H   0  0  0  0  0
    2.5330   -0.1030   -0.0620 H   0  0  0  0  0
    2.8640    0.9840   -1.4320 H   0  0  0  0  0
    4.5210    2.2120   -0.0560 H   0  0  0  0  0
    4.1900    1.1250    1.3140 H   0  0  0  0  0
    4.9280   -0.8130   -0.0460 H   0  0  0  0  0
    5.2600    0.2750   -1.4160 H   0  0  0  0  0
    6.9170    1.5030   -0.0390 H   0  0  0  0  0
    6.5850    0.4160    1.3300 H   0  0  0  0  0
    7.3240   -1.5220   -0.0290 H   0  0  0  0  0
    7.6550   -0.4350   -1.3990 H   0  0  0  0  0
    9.3120    0.7940   -0.0230 H   0  0  0  0  0
    8.9810   -0.2940    1.3470 H   0  0  0  0  0
    9.7200   -2.2310   -0.0120 H   0  0  0  0  0
   10.0510   -1.1440   -1.3820 H   0  0  0  0  0
   11.7080    0.0840   -0.0060 H   0  0  0  0  0
   11.3770   -1.0030    1.3640 H   0  0  0  0  0
   12.1150   -2.9410    0.0040 H   0  0  0  0  0
   12.4470   -1.8540   -1.3650 H   0  0  0  0  0
   14.1040   -0.6250    0.0110 H   0  0  0  0  0
   13.7720   -1.7120    1.3800 H   0  0  0  0  0
   14.5210   -2.3520   -0.1020 H   0  0  0  0  0
   -7.4400   -2.5890   -1.9190 H   0  0  0  0  0
   -9.1590   -3.4920    0.5690 H   0  0  0  0  0
  1 26  1  0  0  0
  1 27  1  0  0  0
  2  1  1  0  0  0
  2 22  1  0  0  0
  3  1  1  0  0  0
  3 28  1  0  0  0
  4  3  1  0  0  0
  4 29  1  0  0  0
  4 30  1  0  0  0
  5  3  1  0  0  0
  5  6  1  0  0  0
  5 31  1  0  0  0
  6 32  1  0  0  0
  7  5  1  0  0  0
  7 33  1  0  0  0
  8  7  2  0  0  0
  8 34  1  0  0  0
  9  8  1  0  0  0
  9 35  1  0  0  0
  9 36  1  0  0  0
 10  9  1  0  0  0
 10 37  1  0  0  0
 10 38  1  0  0  0
 11 10  1  0  0  0
 11 12  1  0  0  0
 11 39  1  0  0  0
 11 40  1  0  0  0
 12 41  1  0  0  0
 12 42  1  0  0  0
 13 12  1  0  0  0
 13 43  1  0  0  0
 13 44  1  0  0  0
 14 13  1  0  0  0
 14 45  1  0  0  0
 14 46  1  0  0  0
 15 14  1  0  0  0
 15 16  1  0  0  0
 15 47  1  0  0  0
 15 48  1  0  0  0
 16 49  1  0  0  0
 16 50  1  0  0  0
 17 16  1  0  0  0
 17 18  1  0  0  0
 17 51  1  0  0  0
 17 52  1  0  0  0
 18 19  1  0  0  0
 18 53  1  0  0  0
 18 54  1  0  0  0
 19 20  1  0  0  0
 19 55  1  0  0  0
 19 56  1  0  0  0
 20 21  1  0  0  0
 20 57  1  0  0  0
 20 58  1  0  0  0
 21 59  1  0  0  0
 21 60  1  0  0  0
 21 61  1  0  0  0
 22 23  1  0  0  0
 23 62  1  0  0  0
 24 22  1  0  0  0
 24 63  1  0  0  0
 25 22  2  0  0  0
M  END
$$$$
