SL9
  CCTOOLS-0919241029

 37 36  0  0  1  0  0  0  0  0999 V2000
    5.6100   -0.6780    0.4330 C   0  0  0  0  0
   -4.5670    1.6280   -1.1300 O   0  0  0  0  0
    4.3230   -0.0260   -0.0010 C   0  0  0  0  0
   -4.2400    3.0590    0.7180 C   0  0  0  0  0
   -3.2910    0.7870    0.4780 N   0  0  0  0  0
   -3.1020   -0.4620   -0.2630 C   0  0  0  0  0
   -4.2550   -1.3910    0.0160 C   0  0  0  0  0
   -5.1470   -1.0440    0.7610 O   0  0  0  0  0
   -1.7950   -1.1240    0.1780 C   0  0  0  0  0
   -0.6140   -0.2350   -0.2190 C   0  0  0  0  0
    0.6930   -0.8970    0.2220 C   0  0  0  0  0
    1.8740   -0.0090   -0.1740 C   0  0  0  0  0
    3.1250   -0.6420    0.2490 N   0  0  0  0  0
   -4.0450    1.7740   -0.0450 C   0  0  0  0  0
   -4.2950   -2.6080   -0.5620 N   0  0  0  0  0
    4.3490    1.1150   -0.6090 N   0  0  0  0  0
    7.0100    0.3750   -0.0360 S   0  0  0  0  0
    5.6030   -0.8120    1.5150 H   0  0  0  0  0
    5.7080   -1.6490   -0.0520 H   0  0  0  0  0
   -4.8740    3.7320    0.1400 H   0  0  0  0  0
   -4.7140    2.8450    1.6750 H   0  0  0  0  0
   -3.2720    3.5300    0.8890 H   0  0  0  0  0
   -2.8740    0.9040    1.3460 H   0  0  0  0  0
   -3.0580   -0.2480   -1.3310 H   0  0  0  0  0
   -1.8020   -1.2570    1.2590 H   0  0  0  0  0
   -1.6980   -2.0950   -0.3080 H   0  0  0  0  0
   -0.6070   -0.1020   -1.3000 H   0  0  0  0  0
   -0.7110    0.7360    0.2670 H   0  0  0  0  0
    0.6860   -1.0310    1.3040 H   0  0  0  0  0
    0.7900   -1.8680   -0.2630 H   0  0  0  0  0
    1.8810    0.1250   -1.2550 H   0  0  0  0  0
    1.7760    0.9630    0.3120 H   0  0  0  0  0
    3.1050   -1.4980    0.7050 H   0  0  0  0  0
   -3.5820   -2.8850   -1.1580 H   0  0  0  0  0
   -5.0370   -3.2060   -0.3830 H   0  0  0  0  0
    3.5210    1.5350   -0.8880 H   0  0  0  0  0
    8.0740   -0.3190    0.4060 H   0  0  0  0  0
  1  3  1  0  0  0
  1 18  1  0  0  0
  1 19  1  0  0  0
  3 13  1  0  0  0
  4 14  1  0  0  0
  4 20  1  0  0  0
  4 21  1  0  0  0
  4 22  1  0  0  0
  5 23  1  0  0  0
  6  5  1  0  0  0
  6  7  1  0  0  0
  6 24  1  0  0  0
  7 15  1  0  0  0
  7  8  2  0  0  0
  9  6  1  0  0  0
  9 25  1  0  0  0
  9 26  1  0  0  0
 10 11  1  0  0  0
 10  9  1  0  0  0
 10 27  1  0  0  0
 10 28  1  0  0  0
 11 29  1  0  0  0
 11 30  1  0  0  0
 12 11  1  0  0  0
 12 31  1  0  0  0
 12 32  1  0  0  0
 13 12  1  0  0  0
 13 33  1  0  0  0
 14  2  2  0  0  0
 14  5  1  0  0  0
 15 34  1  0  0  0
 15 35  1  0  0  0
 16  3  2  0  0  0
 16 36  1  0  0  0
 17  1  1  0  0  0
 17 37  1  0  0  0
M  END
$$$$
