SLB
  CCTOOLS-0919241029

 40 40  0  0  1  0  0  0  0  0999 V2000
   -2.6420    0.3260   -2.1840 C   0  0  0  0  0
   -1.8240   -0.1920   -1.0300 C   0  0  0  0  0
   -2.5200    0.1580    0.2860 C   0  0  0  0  0
   -1.6960   -0.4020    1.4510 C   0  0  0  0  0
   -0.2550    0.1020    1.3200 C   0  0  0  0  0
    0.2700   -0.2430   -0.0750 C   0  0  0  0  0
    1.7200    0.2290   -0.2040 C   0  0  0  0  0
    2.2490   -0.1240   -1.5960 C   0  0  0  0  0
    3.6990    0.3470   -1.7250 C   0  0  0  0  0
    0.7370    0.0290    3.5440 C   0  0  0  0  0
    1.6000   -0.6340    4.5860 C   0  0  0  0  0
    0.5830   -0.5420    2.3330 N   0  0  0  0  0
   -2.1640    1.1280   -2.9520 O   0  0  0  0  0
   -3.9030   -0.1000   -2.3590 O   0  0  0  0  0
   -1.6990   -1.6120   -1.1380 O   0  0  0  0  0
   -2.2490    0.0430    2.6910 O   0  0  0  0  0
   -0.5270    0.4010   -1.0650 O   0  0  0  0  0
    1.7790    1.6440   -0.0180 O   0  0  0  0  0
    2.1900   -1.5390   -1.7820 O   0  0  0  0  0
    4.1930    0.0170   -3.0250 O   0  0  0  0  0
    0.1810    1.0770    3.7940 O   0  0  0  0  0
   -3.5170   -0.2810    0.2990 H   0  0  0  0  0
   -2.5960    1.2410    0.3800 H   0  0  0  0  0
   -1.7070   -1.4910    1.4160 H   0  0  0  0  0
   -0.2320    1.1820    1.4610 H   0  0  0  0  0
    0.2270   -1.3220   -0.2190 H   0  0  0  0  0
    2.3310   -0.2620    0.5520 H   0  0  0  0  0
    1.6380    0.3670   -2.3520 H   0  0  0  0  0
    3.7430    1.4270   -1.5830 H   0  0  0  0  0
    4.3100   -0.1440   -0.9690 H   0  0  0  0  0
    1.6030   -0.0290    5.4930 H   0  0  0  0  0
    1.2020   -1.6230    4.8110 H   0  0  0  0  0
    2.6180   -0.7280    4.2090 H   0  0  0  0  0
    1.0280   -1.3810    2.1330 H   0  0  0  0  0
   -4.4280    0.2330   -3.0990 H   0  0  0  0  0
   -1.2560   -1.7910   -1.9790 H   0  0  0  0  0
   -3.1540   -0.2950    2.7310 H   0  0  0  0  0
    1.2260    2.0400   -0.7050 H   0  0  0  0  0
    2.7430   -1.9350   -1.0940 H   0  0  0  0  0
    5.1060    0.3310   -3.0650 H   0  0  0  0  0
  1  2  1  0  0  0
  1 13  2  0  0  0
  1 14  1  0  0  0
  2  3  1  0  0  0
  2 15  1  0  0  0
  2 17  1  0  0  0
  3  4  1  0  0  0
  3 22  1  0  0  0
  3 23  1  0  0  0
  4  5  1  0  0  0
  4 16  1  0  0  0
  4 24  1  0  0  0
  5  6  1  0  0  0
  5 12  1  0  0  0
  5 25  1  0  0  0
  6  7  1  0  0  0
  6 17  1  0  0  0
  6 26  1  0  0  0
  7  8  1  0  0  0
  7 18  1  0  0  0
  7 27  1  0  0  0
  8  9  1  0  0  0
  8 19  1  0  0  0
  8 28  1  0  0  0
  9 20  1  0  0  0
  9 29  1  0  0  0
  9 30  1  0  0  0
 10 11  1  0  0  0
 10 12  1  0  0  0
 10 21  2  0  0  0
 11 31  1  0  0  0
 11 32  1  0  0  0
 11 33  1  0  0  0
 12 34  1  0  0  0
 14 35  1  0  0  0
 15 36  1  0  0  0
 16 37  1  0  0  0
 18 38  1  0  0  0
 19 39  1  0  0  0
 20 40  1  0  0  0
M  END
$$$$
