T5U
  CCTOOLS-0919241032

 34 35  0  0  1  0  0  0  0  0999 V2000
   -2.3980   -0.8460   -1.0900 C   0  0  0  0  0
   -4.2840   -1.3150    0.3080 C   0  0  0  0  0
   -3.7180   -0.5650    1.3220 C   0  0  0  0  0
    3.5610   -0.6540   -0.4440 C   0  0  0  0  0
   -0.5070    0.5870   -0.2930 C   0  0  0  0  0
    0.4980    0.0720    0.7400 C   0  0  0  0  0
    1.8830    0.6430    0.4330 C   0  0  0  0  0
   -0.6700    2.1000   -0.1350 C   0  0  0  0  0
   -1.8370   -0.0880   -0.0800 C   0  0  0  0  0
    2.9010    0.2170    1.5150 C   0  0  0  0  0
   -1.5810    2.6320   -1.2430 C   0  0  0  0  0
   -2.4980    0.0530    1.1270 C   0  0  0  0  0
   -3.6210   -1.4600   -0.8960 C   0  0  0  0  0
    2.4320    0.0460   -0.8010 N   0  0  0  0  0
    4.0940   -1.6130   -1.1430 N   0  0  0  0  0
    4.0410   -0.1980    0.7370 O   0  0  0  0  0
   -1.8820   -0.9560   -2.0330 H   0  0  0  0  0
   -5.2380   -1.7980    0.4610 H   0  0  0  0  0
   -4.2300   -0.4630    2.2680 H   0  0  0  0  0
   -0.1430    0.3630   -1.2960 H   0  0  0  0  0
    0.1870    0.3860    1.7360 H   0  0  0  0  0
    0.5360   -1.0170    0.6980 H   0  0  0  0  0
    1.8410    1.7300    0.3520 H   0  0  0  0  0
   -1.1140    2.3180    0.8360 H   0  0  0  0  0
    0.3060    2.5800   -0.2050 H   0  0  0  0  0
    3.1580    1.0590    2.1570 H   0  0  0  0  0
    2.5110   -0.6120    2.1050 H   0  0  0  0  0
   -1.0990    2.4890   -2.2100 H   0  0  0  0  0
   -2.5280    2.0930   -1.2260 H   0  0  0  0  0
   -1.7650    3.6950   -1.0830 H   0  0  0  0  0
   -2.0600    0.6470    1.9160 H   0  0  0  0  0
   -4.0590   -2.0530   -1.6860 H   0  0  0  0  0
    4.8950   -2.0570   -0.8260 H   0  0  0  0  0
    2.0650    0.1320   -1.6950 H   0  0  0  0  0
  1  9  1  0  0  0
  1 17  1  0  0  0
  2  3  2  0  0  0
  2 18  1  0  0  0
  3 12  1  0  0  0
  3 19  1  0  0  0
  4 16  1  0  0  0
  4 14  1  0  0  0
  5  8  1  0  0  0
  5 20  1  0  0  0
  6  5  1  0  0  0
  6 21  1  0  0  0
  6 22  1  0  0  0
  7  6  1  0  0  0
  7 23  1  0  0  0
  8 11  1  0  0  0
  8 24  1  0  0  0
  8 25  1  0  0  0
  9  5  1  0  0  0
  9 12  2  0  0  0
 10  7  1  0  0  0
 10 26  1  0  0  0
 10 27  1  0  0  0
 11 28  1  0  0  0
 11 29  1  0  0  0
 11 30  1  0  0  0
 12 31  1  0  0  0
 13  1  2  0  0  0
 13  2  1  0  0  0
 13 32  1  0  0  0
 14  7  1  0  0  0
 14 34  1  0  0  0
 15  4  2  0  0  0
 15 33  1  0  0  0
 16 10  1  0  0  0
M  END
$$$$
