TBA
  CCTOOLS-0919241033

 53 52  0  0  0  0  0  0  0  0999 V2000
    2.2590   -0.5700   -4.5640 N   0  3  0  0  0
    1.1740    0.2780   -4.0130 C   0  0  0  0  0
    1.7070    1.0570   -2.8200 C   0  0  0  0  0
    3.4460    0.2900   -5.0200 C   0  0  0  0  0
    2.9780    1.2550   -6.0990 C   0  0  0  0  0
    1.7630   -1.3760   -5.7720 C   0  0  0  0  0
    2.9040   -2.2300   -6.3050 C   0  0  0  0  0
    2.7680   -1.5610   -3.5070 C   0  0  0  0  0
    1.6170   -2.4550   -3.0670 C   0  0  0  0  0
    0.6090    1.9130   -2.1890 C   0  0  0  0  0
    1.1210    2.6690   -0.9740 C   0  0  0  0  0
    4.1380    2.1030   -6.6180 C   0  0  0  0  0
    3.6890    3.0460   -7.7220 C   0  0  0  0  0
    2.4690   -3.0180   -7.5400 C   0  0  0  0  0
    3.6120   -3.8470   -8.1030 C   0  0  0  0  0
    2.0660   -3.4300   -1.9790 C   0  0  0  0  0
    0.9150   -4.3040   -1.5060 C   0  0  0  0  0
    0.3580   -0.3940   -3.7320 H   0  0  0  0  0
    0.8460    0.9380   -4.8210 H   0  0  0  0  0
    2.5380    1.7000   -3.1370 H   0  0  0  0  0
    2.1070    0.3620   -2.0710 H   0  0  0  0  0
    4.2130   -0.3980   -5.3900 H   0  0  0  0  0
    3.8180    0.8140   -4.1340 H   0  0  0  0  0
    2.1950    1.9100   -5.6970 H   0  0  0  0  0
    2.5310    0.6950   -6.9300 H   0  0  0  0  0
    1.4110   -0.6520   -6.5140 H   0  0  0  0  0
    0.9230   -1.9850   -5.4250 H   0  0  0  0  0
    3.2430   -2.9250   -5.5270 H   0  0  0  0  0
    3.7590   -1.5910   -6.5590 H   0  0  0  0  0
    3.1650   -0.9670   -2.6790 H   0  0  0  0  0
    3.5760   -2.1330   -3.9720 H   0  0  0  0  0
    1.2320   -3.0160   -3.9270 H   0  0  0  0  0
    0.7910   -1.8390   -2.6900 H   0  0  0  0  0
   -0.2320    1.2770   -1.8890 H   0  0  0  0  0
    0.2280    2.6300   -2.9250 H   0  0  0  0  0
    1.9430    3.3390   -1.2460 H   0  0  0  0  0
    1.4810    1.9780   -0.2040 H   0  0  0  0  0
    0.3200    3.2740   -0.5390 H   0  0  0  0  0
    4.9320    1.4520   -7.0020 H   0  0  0  0  0
    4.5680    2.6890   -5.7970 H   0  0  0  0  0
    2.9170    3.7330   -7.3610 H   0  0  0  0  0
    3.2830    2.4890   -8.5730 H   0  0  0  0  0
    4.5350    3.6430   -8.0780 H   0  0  0  0  0
    2.1100   -2.3290   -8.3140 H   0  0  0  0  0
    1.6350   -3.6810   -7.2840 H   0  0  0  0  0
    3.9740   -4.5700   -7.3640 H   0  0  0  0  0
    4.4510   -3.2090   -8.3990 H   0  0  0  0  0
    3.2790   -4.4020   -8.9860 H   0  0  0  0  0
    2.4710   -2.8750   -1.1250 H   0  0  0  0  0
    2.8700   -4.0700   -2.3610 H   0  0  0  0  0
    0.5080   -4.8980   -2.3310 H   0  0  0  0  0
    0.1070   -3.6960   -1.0870 H   0  0  0  0  0
    1.2590   -4.9940   -0.7280 H   0  0  0  0  0
  1  2  1  0  0  0
  1  4  1  0  0  0
  1  6  1  0  0  0
  1  8  1  0  0  0
  2  3  1  0  0  0
  2 18  1  0  0  0
  2 19  1  0  0  0
  3 10  1  0  0  0
  3 20  1  0  0  0
  3 21  1  0  0  0
  4  5  1  0  0  0
  4 22  1  0  0  0
  4 23  1  0  0  0
  5 12  1  0  0  0
  5 24  1  0  0  0
  5 25  1  0  0  0
  6  7  1  0  0  0
  6 26  1  0  0  0
  6 27  1  0  0  0
  7 14  1  0  0  0
  7 28  1  0  0  0
  7 29  1  0  0  0
  8  9  1  0  0  0
  8 30  1  0  0  0
  8 31  1  0  0  0
  9 16  1  0  0  0
  9 32  1  0  0  0
  9 33  1  0  0  0
 10 11  1  0  0  0
 10 34  1  0  0  0
 10 35  1  0  0  0
 11 36  1  0  0  0
 11 37  1  0  0  0
 11 38  1  0  0  0
 12 13  1  0  0  0
 12 39  1  0  0  0
 12 40  1  0  0  0
 13 41  1  0  0  0
 13 42  1  0  0  0
 13 43  1  0  0  0
 14 15  1  0  0  0
 14 44  1  0  0  0
 14 45  1  0  0  0
 15 46  1  0  0  0
 15 47  1  0  0  0
 15 48  1  0  0  0
 16 17  1  0  0  0
 16 49  1  0  0  0
 16 50  1  0  0  0
 17 51  1  0  0  0
 17 52  1  0  0  0
 17 53  1  0  0  0
M  CHG  1   1   1
M  END
$$$$
