TES
  CCTOOLS-0919241034

 49 52  0  0  1  0  0  0  0  0999 V2000
    1.5950    0.1910   -2.4880 C   0  0  0  0  0
    1.3460   -0.9130   -3.5130 C   0  0  0  0  0
    0.1350   -0.5130   -4.3340 C   0  0  0  0  0
    0.1610   -0.4850   -5.5470 O   0  0  0  0  0
   -1.0710   -0.1620   -3.5730 C   0  0  0  0  0
   -0.9410    0.2800   -2.3260 C   0  0  0  0  0
   -2.1930    0.6010   -1.5270 C   0  0  0  0  0
   -2.1140   -0.1740   -0.2070 C   0  0  0  0  0
   -0.8100    0.1600    0.5170 C   0  0  0  0  0
    0.3910   -0.2930   -0.3280 C   0  0  0  0  0
    0.3600    0.4850   -1.6430 C   0  0  0  0  0
    1.7120   -0.0340    0.3880 C   0  0  0  0  0
    1.7400   -0.6840    1.7810 C   0  0  0  0  0
    0.5630   -0.1270    2.5590 C   0  0  0  0  0
   -0.7280   -0.6060    1.8430 C   0  0  0  0  0
   -1.8080   -0.2680    2.8760 C   0  0  0  0  0
   -1.1520   -0.6930    4.2180 C   0  0  0  0  0
    0.3880   -0.6370    3.9850 C   0  0  0  0  0
    0.9990    0.2470    4.9270 O   0  0  0  0  0
    0.6190    1.4020    2.5590 C   0  0  0  0  0
    0.4240    1.9680   -1.2740 C   0  0  0  0  0
    2.4120   -0.1110   -1.8330 H   0  0  0  0  0
    1.8840    1.1010   -3.0130 H   0  0  0  0  0
    1.1520   -1.8560   -3.0020 H   0  0  0  0  0
    2.2160   -1.0170   -4.1630 H   0  0  0  0  0
   -2.0500   -0.2630   -4.0200 H   0  0  0  0  0
   -3.0770    0.2920   -2.0850 H   0  0  0  0  0
   -2.2380    1.6710   -1.3240 H   0  0  0  0  0
   -2.1480   -1.2440   -0.4140 H   0  0  0  0  0
   -2.9590    0.0970    0.4230 H   0  0  0  0  0
   -0.7520    1.2350    0.6880 H   0  0  0  0  0
    0.3000   -1.3590   -0.5390 H   0  0  0  0  0
    1.8540    1.0410    0.4940 H   0  0  0  0  0
    2.5270   -0.4410   -0.2100 H   0  0  0  0  0
    2.6720   -0.4350    2.2880 H   0  0  0  0  0
    1.6440   -1.7650    1.6870 H   0  0  0  0  0
   -0.7000   -1.6800    1.6590 H   0  0  0  0  0
   -2.0240    0.7990    2.8740 H   0  0  0  0  0
   -2.7140   -0.8460    2.6890 H   0  0  0  0  0
   -1.4310    0.0030    5.0080 H   0  0  0  0  0
   -1.4640   -1.7030    4.4830 H   0  0  0  0  0
    0.8190   -1.6340    4.0700 H   0  0  0  0  0
    0.8230   -0.1150    5.8060 H   0  0  0  0  0
    0.6600    1.7640    1.5310 H   0  0  0  0  0
   -0.2690    1.7980    3.0490 H   0  0  0  0  0
    1.5080    1.7330    3.0960 H   0  0  0  0  0
    0.4250    2.5690   -2.1840 H   0  0  0  0  0
   -0.4410    2.2290   -0.6670 H   0  0  0  0  0
    1.3360    2.1630   -0.7100 H   0  0  0  0  0
  1  2  1  0  0  0
  1 11  1  0  0  0
  1 22  1  0  0  0
  1 23  1  0  0  0
  2  3  1  0  0  0
  2 24  1  0  0  0
  2 25  1  0  0  0
  3  4  2  0  0  0
  3  5  1  0  0  0
  5  6  2  0  0  0
  5 26  1  0  0  0
  6  7  1  0  0  0
  6 11  1  0  0  0
  7  8  1  0  0  0
  7 27  1  0  0  0
  7 28  1  0  0  0
  8  9  1  0  0  0
  8 29  1  0  0  0
  8 30  1  0  0  0
  9 10  1  0  0  0
  9 15  1  0  0  0
  9 31  1  0  0  0
 10 11  1  0  0  0
 10 12  1  0  0  0
 10 32  1  0  0  0
 11 21  1  0  0  0
 12 13  1  0  0  0
 12 33  1  0  0  0
 12 34  1  0  0  0
 13 14  1  0  0  0
 13 35  1  0  0  0
 13 36  1  0  0  0
 14 15  1  0  0  0
 14 18  1  0  0  0
 14 20  1  0  0  0
 15 16  1  0  0  0
 15 37  1  0  0  0
 16 17  1  0  0  0
 16 38  1  0  0  0
 16 39  1  0  0  0
 17 18  1  0  0  0
 17 40  1  0  0  0
 17 41  1  0  0  0
 18 19  1  0  0  0
 18 42  1  0  0  0
 19 43  1  0  0  0
 20 44  1  0  0  0
 20 45  1  0  0  0
 20 46  1  0  0  0
 21 47  1  0  0  0
 21 48  1  0  0  0
 21 49  1  0  0  0
M  END
$$$$
