TJR
  CCTOOLS-0919241034

 72 71  0  0  1  0  0  0  0  0999 V2000
   11.7340   -0.7490    1.2400 O   0  0  0  0  0
   11.4860   -0.2900   -0.1450 P   0  0  0  0  0
   11.6040   -1.5390   -1.1530 O   0  0  0  0  0
    3.8910   -1.1550    0.5440 O   0  0  0  0  0
   10.0100    0.3430   -0.2450 O   0  0  0  0  0
    8.8310   -0.3640    0.1470 C   0  0  0  0  0
    7.6050    0.5240   -0.0770 C   0  0  0  0  0
    6.3360   -0.2750    0.2230 C   0  0  0  0  0
    5.1700    0.5280   -0.1010 O   0  0  0  0  0
    3.9680   -0.0310    0.1060 C   0  0  0  0  0
    2.7130    0.7420   -0.2080 C   0  0  0  0  0
    1.4900   -0.1180    0.1160 C   0  0  0  0  0
    0.2160    0.6670   -0.2030 C   0  0  0  0  0
   -1.0080   -0.1920    0.1220 C   0  0  0  0  0
   -2.2820    0.5930   -0.1970 C   0  0  0  0  0
   -3.5050   -0.2660    0.1280 C   0  0  0  0  0
   -4.7790    0.5180   -0.1910 C   0  0  0  0  0
   -6.0030   -0.3410    0.1330 C   0  0  0  0  0
   -7.2760    0.4440   -0.1850 C   0  0  0  0  0
   -8.5000   -0.4150    0.1390 C   0  0  0  0  0
   -9.7740    0.3700   -0.1800 C   0  0  0  0  0
  -10.9970   -0.4900    0.1450 C   0  0  0  0  0
  -12.2710    0.2950   -0.1740 C   0  0  0  0  0
  -13.4950   -0.5640    0.1500 C   0  0  0  0  0
  -14.7690    0.2210   -0.1680 C   0  0  0  0  0
  -15.9920   -0.6390    0.1560 C   0  0  0  0  0
  -17.2660    0.1460   -0.1630 C   0  0  0  0  0
    7.6730    1.6560    0.7920 O   0  0  0  0  0
   11.4530   -1.3120   -2.0810 H   0  0  0  0  0
    8.7370   -1.2710   -0.4510 H   0  0  0  0  0
    8.9000   -0.6290    1.2020 H   0  0  0  0  0
    7.5860    0.8610   -1.1130 H   0  0  0  0  0
    6.3280   -1.1850   -0.3770 H   0  0  0  0  0
    6.3130   -0.5370    1.2810 H   0  0  0  0  0
    2.6870    1.6520    0.3910 H   0  0  0  0  0
    2.7030    1.0040   -1.2660 H   0  0  0  0  0
    1.5150   -1.0280   -0.4830 H   0  0  0  0  0
    1.5000   -0.3790    1.1740 H   0  0  0  0  0
    0.1900    1.5770    0.3970 H   0  0  0  0  0
    0.2060    0.9290   -1.2610 H   0  0  0  0  0
   -0.9820   -1.1020   -0.4780 H   0  0  0  0  0
   -0.9980   -0.4540    1.1800 H   0  0  0  0  0
   -2.3070    1.5030    0.4030 H   0  0  0  0  0
   -2.2920    0.8550   -1.2550 H   0  0  0  0  0
   -3.4790   -1.1760   -0.4720 H   0  0  0  0  0
   -3.4950   -0.5280    1.1860 H   0  0  0  0  0
   -4.8050    1.4280    0.4080 H   0  0  0  0  0
   -4.7890    0.7800   -1.2490 H   0  0  0  0  0
   -5.9770   -1.2510   -0.4660 H   0  0  0  0  0
   -5.9920   -0.6030    1.1910 H   0  0  0  0  0
   -7.3020    1.3540    0.4140 H   0  0  0  0  0
   -7.2870    0.7060   -1.2440 H   0  0  0  0  0
   -8.4740   -1.3250   -0.4610 H   0  0  0  0  0
   -8.4900   -0.6770    1.1970 H   0  0  0  0  0
   -9.8000    1.2800    0.4200 H   0  0  0  0  0
   -9.7840    0.6310   -1.2380 H   0  0  0  0  0
  -10.9710   -1.4000   -0.4550 H   0  0  0  0  0
  -10.9870   -0.7520    1.2030 H   0  0  0  0  0
  -12.2970    1.2050    0.4260 H   0  0  0  0  0
  -12.2810    0.5570   -1.2320 H   0  0  0  0  0
  -13.4690   -1.4740   -0.4490 H   0  0  0  0  0
  -13.4840   -0.8260    1.2090 H   0  0  0  0  0
  -14.7940    1.1310    0.4310 H   0  0  0  0  0
  -14.7790    0.4820   -1.2270 H   0  0  0  0  0
  -15.9660   -1.5490   -0.4440 H   0  0  0  0  0
  -15.9820   -0.9000    1.2140 H   0  0  0  0  0
  -17.2920    1.0560    0.4370 H   0  0  0  0  0
  -17.2760    0.4080   -1.2210 H   0  0  0  0  0
  -18.1380   -0.4660    0.0680 H   0  0  0  0  0
    7.6930    1.4300    1.7320 H   0  0  0  0  0
   12.5770    0.8260   -0.5440 O   0  0  0  0  0
   13.4910    0.5130   -0.5050 H   0  0  0  0  0
  2  1  2  0  0  0
  2 71  1  0  0  0
  3  2  1  0  0  0
  3 29  1  0  0  0
  4 10  2  0  0  0
  5  2  1  0  0  0
  5  6  1  0  0  0
  6 30  1  0  0  0
  6 31  1  0  0  0
  7 28  1  0  0  0
  7  6  1  0  0  0
  7 32  1  0  0  0
  8  7  1  0  0  0
  8 33  1  0  0  0
  8 34  1  0  0  0
  9  8  1  0  0  0
 10  9  1  0  0  0
 11 10  1  0  0  0
 11 35  1  0  0  0
 11 36  1  0  0  0
 12 13  1  0  0  0
 12 11  1  0  0  0
 12 37  1  0  0  0
 12 38  1  0  0  0
 13 39  1  0  0  0
 13 40  1  0  0  0
 14 15  1  0  0  0
 14 13  1  0  0  0
 14 41  1  0  0  0
 14 42  1  0  0  0
 15 43  1  0  0  0
 15 44  1  0  0  0
 16 15  1  0  0  0
 16 45  1  0  0  0
 16 46  1  0  0  0
 17 16  1  0  0  0
 17 47  1  0  0  0
 17 48  1  0  0  0
 18 17  1  0  0  0
 18 49  1  0  0  0
 18 50  1  0  0  0
 19 20  1  0  0  0
 19 18  1  0  0  0
 19 51  1  0  0  0
 19 52  1  0  0  0
 20 53  1  0  0  0
 20 54  1  0  0  0
 21 22  1  0  0  0
 21 20  1  0  0  0
 21 55  1  0  0  0
 21 56  1  0  0  0
 22 57  1  0  0  0
 22 58  1  0  0  0
 23 24  1  0  0  0
 23 22  1  0  0  0
 23 59  1  0  0  0
 23 60  1  0  0  0
 24 61  1  0  0  0
 24 62  1  0  0  0
 25 26  1  0  0  0
 25 24  1  0  0  0
 25 63  1  0  0  0
 25 64  1  0  0  0
 26 65  1  0  0  0
 26 66  1  0  0  0
 27 26  1  0  0  0
 27 67  1  0  0  0
 27 68  1  0  0  0
 27 69  1  0  0  0
 28 70  1  0  0  0
 71 72  1  0  0  0
M  END
$$$$
