TMA
  CCTOOLS-0919241034

 17 16  0  0  0  0  0  0  0  0999 V2000
    0.0000    0.0000    0.0000 N   0  3  0  0  0
    0.0510    1.1900    0.8600 C   0  0  0  0  0
   -0.0460   -1.2070    0.8360 C   0  0  0  0  0
   -1.2010    0.0560   -0.8440 C   0  0  0  0  0
    1.1960   -0.0400   -0.8520 C   0  0  0  0  0
    0.9420    1.1480    1.4860 H   0  0  0  0  0
    0.0850    2.0850    0.2390 H   0  0  0  0  0
   -0.8370    1.2200    1.4920 H   0  0  0  0  0
   -0.9330   -1.1770    1.4690 H   0  0  0  0  0
   -0.0830   -2.0900    0.1990 H   0  0  0  0  0
    0.8450   -1.2490    1.4630 H   0  0  0  0  0
   -1.1670    0.9520   -1.4650 H   0  0  0  0  0
   -1.2380   -0.8270   -1.4820 H   0  0  0  0  0
   -2.0880    0.0860   -0.2120 H   0  0  0  0  0
    2.0870   -0.0820   -0.2250 H   0  0  0  0  0
    1.1590   -0.9230   -1.4900 H   0  0  0  0  0
    1.2300    0.8560   -1.4730 H   0  0  0  0  0
  1  2  1  0  0  0
  1  3  1  0  0  0
  1  4  1  0  0  0
  1  5  1  0  0  0
  2  6  1  0  0  0
  2  7  1  0  0  0
  2  8  1  0  0  0
  3  9  1  0  0  0
  3 10  1  0  0  0
  3 11  1  0  0  0
  4 12  1  0  0  0
  4 13  1  0  0  0
  4 14  1  0  0  0
  5 15  1  0  0  0
  5 16  1  0  0  0
  5 17  1  0  0  0
M  CHG  1   1   1
M  END
$$$$
