U7D
  CCTOOLS-0919241037

 33 34  0  0  0  0  0  0  0  0999 V2000
    2.3770    1.9510    1.0150 C   0  0  0  0  0
    3.5660    1.4040    0.5700 C   0  0  0  0  0
    3.6070    0.0920    0.1330 C   0  0  0  0  0
    2.4590   -0.6750    0.1410 C   0  0  0  0  0
    4.9050   -0.5000   -0.3520 C   0  0  0  0  0
   -5.8170    0.7200   -0.5380 C   0  0  0  0  0
   -3.4690    0.7480   -0.4670 N   0  0  0  0  0
   -1.1170    1.2260   -0.4230 S   0  0  0  0  0
   -4.6070    1.3490   -0.7570 C   0  0  0  0  0
   -2.2150   -1.0710    0.3330 N   0  0  0  0  0
   -3.4400   -0.4740    0.0410 C   0  0  0  0  0
    0.0980   -0.9040    0.5970 N   0  0  0  0  0
   -4.6190   -1.1690    0.2830 C   0  0  0  0  0
   -5.8290   -0.5620   -0.0060 C   0  0  0  0  0
   -7.1300   -1.2770    0.2520 C   0  0  0  0  0
   -1.0750   -0.3620    0.2140 C   0  0  0  0  0
    1.2630   -0.1290    0.5880 C   0  0  0  0  0
    1.2260    1.1880    1.0260 C   0  0  0  0  0
    5.9170    0.4620   -0.2660 F   0  0  0  0  0
    5.2410   -1.6020    0.4420 F   0  0  0  0  0
    4.7630   -0.9090   -1.6820 F   0  0  0  0  0
    2.3490    2.9740    1.3600 H   0  0  0  0  0
    4.4650    2.0020    0.5630 H   0  0  0  0  0
    2.4910   -1.6990   -0.2010 H   0  0  0  0  0
   -6.7430    1.2220   -0.7740 H   0  0  0  0  0
   -4.5920    2.3470   -1.1710 H   0  0  0  0  0
   -2.1830   -1.9970    0.6210 H   0  0  0  0  0
    0.1350   -1.8320    0.8790 H   0  0  0  0  0
   -4.5920   -2.1660    0.6980 H   0  0  0  0  0
   -7.4160   -1.8430   -0.6340 H   0  0  0  0  0
   -7.0100   -1.9570    1.0950 H   0  0  0  0  0
   -7.9060   -0.5470    0.4820 H   0  0  0  0  0
    0.2980    1.6150    1.3780 H   0  0  0  0  0
  1 18  2  0  0  0
  1 22  1  0  0  0
  2  1  1  0  0  0
  2 23  1  0  0  0
  3  2  2  0  0  0
  3  4  1  0  0  0
  4 17  2  0  0  0
  4 24  1  0  0  0
  5  3  1  0  0  0
  6 14  2  0  0  0
  6 25  1  0  0  0
  7  9  2  0  0  0
  7 11  1  0  0  0
  9  6  1  0  0  0
  9 26  1  0  0  0
 10 16  1  0  0  0
 10 11  1  0  0  0
 10 27  1  0  0  0
 11 13  2  0  0  0
 12 16  1  0  0  0
 12 28  1  0  0  0
 13 14  1  0  0  0
 13 29  1  0  0  0
 14 15  1  0  0  0
 15 30  1  0  0  0
 15 31  1  0  0  0
 15 32  1  0  0  0
 16  8  2  0  0  0
 17 18  1  0  0  0
 17 12  1  0  0  0
 18 33  1  0  0  0
 19  5  1  0  0  0
 20  5  1  0  0  0
 21  5  1  0  0  0
M  END
$$$$
