UBL
  CCTOOLS-0919241038

 70 69  0  0  1  0  0  0  0  0999 V2000
   11.0110    0.8740    1.5260 O   0  0  0  0  0
   11.0510   -0.4570   -0.6180 O   0  0  0  0  0
   10.6750    0.8560   -0.0490 P   0  0  0  0  0
    3.4660   -1.7060    0.5520 O   0  0  0  0  0
    9.0990    1.1040   -0.2640 O   0  0  0  0  0
    8.0990    0.1860    0.1830 C   0  0  0  0  0
    6.7140    0.7250   -0.1810 C   0  0  0  0  0
    5.6510   -0.3130    0.1850 C   0  0  0  0  0
    4.3500    0.1470   -0.2670 O   0  0  0  0  0
    3.3020   -0.6550   -0.0220 C   0  0  0  0  0
    1.9200   -0.2440   -0.4610 C   0  0  0  0  0
    0.9150   -1.3260   -0.0630 C   0  0  0  0  0
   -0.4880   -0.9090   -0.5090 C   0  0  0  0  0
   -1.4930   -1.9920   -0.1110 C   0  0  0  0  0
   -2.8960   -1.5750   -0.5570 C   0  0  0  0  0
   -3.9010   -2.6570   -0.1590 C   0  0  0  0  0
   -5.3030   -2.2400   -0.6050 C   0  0  0  0  0
   -6.2930   -3.3060   -0.2130 C   0  0  0  0  0
   -7.3650   -2.9860    0.4690 C   0  0  0  0  0
   -7.6970   -1.5370    0.7140 C   0  0  0  0  0
   -9.1260   -1.2550    0.2460 C   0  0  0  0  0
   -9.4630    0.2170    0.4960 C   0  0  0  0  0
  -10.8920    0.4990    0.0280 C   0  0  0  0  0
  -11.2290    1.9710    0.2770 C   0  0  0  0  0
  -12.6580    2.2530   -0.1900 C   0  0  0  0  0
  -12.9950    3.7250    0.0590 C   0  0  0  0  0
  -14.4240    4.0070   -0.4090 C   0  0  0  0  0
    6.4680    1.9330    0.5420 O   0  0  0  0  0
   10.7910    1.7060    1.9660 H   0  0  0  0  0
    8.2510   -0.7800   -0.2990 H   0  0  0  0  0
    8.1710    0.0690    1.2640 H   0  0  0  0  0
    6.6720    0.9270   -1.2510 H   0  0  0  0  0
    5.8890   -1.2620   -0.2970 H   0  0  0  0  0
    5.6330   -0.4490    1.2660 H   0  0  0  0  0
    1.6500    0.6970    0.0190 H   0  0  0  0  0
    1.9060   -0.1160   -1.5440 H   0  0  0  0  0
    1.1840   -2.2670   -0.5440 H   0  0  0  0  0
    0.9290   -1.4540    1.0190 H   0  0  0  0  0
   -0.7570    0.0310   -0.0290 H   0  0  0  0  0
   -0.5020   -0.7810   -1.5920 H   0  0  0  0  0
   -1.2230   -2.9320   -0.5910 H   0  0  0  0  0
   -1.4790   -2.1200    0.9710 H   0  0  0  0  0
   -3.1650   -0.6340   -0.0770 H   0  0  0  0  0
   -2.9090   -1.4470   -1.6400 H   0  0  0  0  0
   -3.6310   -3.5980   -0.6400 H   0  0  0  0  0
   -3.8870   -2.7850    0.9230 H   0  0  0  0  0
   -5.5730   -1.3000   -0.1250 H   0  0  0  0  0
   -5.3170   -2.1120   -1.6880 H   0  0  0  0  0
   -6.1190   -4.3350   -0.4940 H   0  0  0  0  0
   -8.0110   -3.7610    0.8550 H   0  0  0  0  0
   -7.6140   -1.3200    1.7790 H   0  0  0  0  0
   -7.0020   -0.9060    0.1600 H   0  0  0  0  0
   -9.2090   -1.4710   -0.8190 H   0  0  0  0  0
   -9.8210   -1.8850    0.8010 H   0  0  0  0  0
   -9.3800    0.4330    1.5610 H   0  0  0  0  0
   -8.7680    0.8480   -0.0590 H   0  0  0  0  0
  -10.9760    0.2830   -1.0370 H   0  0  0  0  0
  -11.5870   -0.1320    0.5820 H   0  0  0  0  0
  -11.1460    2.1870    1.3420 H   0  0  0  0  0
  -10.5340    2.6020   -0.2770 H   0  0  0  0  0
  -12.7410    2.0370   -1.2550 H   0  0  0  0  0
  -13.3530    1.6220    0.3640 H   0  0  0  0  0
  -12.9120    3.9410    1.1240 H   0  0  0  0  0
  -12.3000    4.3550   -0.4960 H   0  0  0  0  0
  -14.5080    3.7900   -1.4740 H   0  0  0  0  0
  -15.1190    3.3760    0.1460 H   0  0  0  0  0
  -14.6640    5.0550   -0.2310 H   0  0  0  0  0
    6.4900    1.8290    1.5030 H   0  0  0  0  0
   11.5080    2.0190   -0.7880 O   0  0  0  0  0
   12.4670    1.9340   -0.7000 H   0  0  0  0  0
  1  3  1  0  0  0
  1 29  1  0  0  0
  2  3  2  0  0  0
  3  5  1  0  0  0
  3 69  1  0  0  0
  4 10  2  0  0  0
  5  6  1  0  0  0
  6 30  1  0  0  0
  6 31  1  0  0  0
  7  6  1  0  0  0
  7 28  1  0  0  0
  7 32  1  0  0  0
  8  7  1  0  0  0
  8 33  1  0  0  0
  8 34  1  0  0  0
  9  8  1  0  0  0
 10  9  1  0  0  0
 11 10  1  0  0  0
 11 12  1  0  0  0
 11 35  1  0  0  0
 11 36  1  0  0  0
 12 13  1  0  0  0
 12 37  1  0  0  0
 12 38  1  0  0  0
 13 14  1  0  0  0
 13 39  1  0  0  0
 13 40  1  0  0  0
 14 15  1  0  0  0
 14 41  1  0  0  0
 14 42  1  0  0  0
 15 16  1  0  0  0
 15 43  1  0  0  0
 15 44  1  0  0  0
 16 17  1  0  0  0
 16 45  1  0  0  0
 16 46  1  0  0  0
 17 18  1  0  0  0
 17 47  1  0  0  0
 17 48  1  0  0  0
 18 19  2  0  0  0
 18 49  1  0  0  0
 19 20  1  0  0  0
 19 50  1  0  0  0
 20 21  1  0  0  0
 20 51  1  0  0  0
 20 52  1  0  0  0
 21 22  1  0  0  0
 21 53  1  0  0  0
 21 54  1  0  0  0
 22 23  1  0  0  0
 22 55  1  0  0  0
 22 56  1  0  0  0
 23 24  1  0  0  0
 23 57  1  0  0  0
 23 58  1  0  0  0
 24 25  1  0  0  0
 24 59  1  0  0  0
 24 60  1  0  0  0
 25 26  1  0  0  0
 25 61  1  0  0  0
 25 62  1  0  0  0
 26 27  1  0  0  0
 26 63  1  0  0  0
 26 64  1  0  0  0
 27 65  1  0  0  0
 27 66  1  0  0  0
 27 67  1  0  0  0
 28 68  1  0  0  0
 69 70  1  0  0  0
M  END
$$$$
