UGA
  CCTOOLS-0919241038

 59 61  0  0  1  0  0  0  0  0999 V2000
    0.7670    0.3860    4.9450 C   0  0  0  0  0
    1.0130   -0.4450    6.2050 C   0  0  0  0  0
    2.2250   -1.1880    6.0610 O   0  0  0  0  0
   -0.1590   -1.4110    6.4040 C   0  0  0  0  0
   -0.0190   -2.0860    7.6550 O   0  0  0  0  0
   -1.4660   -0.6090    6.3960 C   0  0  0  0  0
   -2.5820   -1.5010    6.4270 O   0  0  0  0  0
   -1.5230    0.2370    5.1220 C   0  0  0  0  0
   -0.4270    1.1500    5.0960 O   0  0  0  0  0
   -2.8170    1.0080    5.0920 C   0  0  0  0  0
   -2.8010    2.2150    5.0520 O   0  0  0  0  0
   -3.9890    0.3520    5.1100 O   0  0  0  0  0
    1.1660    0.3280    2.5360 P   0  0  0  0  0
    2.5820    0.7050    2.7430 O   0  0  0  0  0
    0.2800    1.6580    2.3380 O   0  0  0  0  0
    0.6330   -0.4840    3.8200 O   0  0  0  0  0
    1.0430   -0.5980    1.2250 O   0  0  0  0  0
    1.5900    0.2730   -0.0120 P   0  0  0  0  0
    3.0000    0.6500    0.2330 O   0  0  0  0  0
    0.6980    1.6030   -0.1680 O   0  0  0  0  0
    1.4960   -0.5970   -1.3640 O   0  0  0  0  0
    1.9930    0.2260   -2.4210 C   0  0  0  0  0
    1.9310   -0.5450   -3.7400 C   0  0  0  0  0
    0.5680   -0.8800   -4.0470 O   0  0  0  0  0
    2.4580    0.3370   -4.8890 C   0  0  0  0  0
    3.5920   -0.2670   -5.5130 O   0  0  0  0  0
    1.2680    0.4130   -5.8810 C   0  0  0  0  0
    1.7240    0.3110   -7.2310 O   0  0  0  0  0
    0.4340   -0.8300   -5.4830 C   0  0  0  0  0
   -0.9690   -0.6570   -5.8650 N   0  0  0  0  0
   -1.5740   -1.5880   -6.6640 C   0  0  0  0  0
   -1.6530    0.4130   -5.4210 C   0  0  0  0  0
   -1.0960    1.2280   -4.7110 O   0  0  0  0  0
   -2.9430    0.5990   -5.7600 N   0  0  0  0  0
   -3.5750   -0.2950   -6.5460 C   0  0  0  0  0
   -4.7430   -0.1290   -6.8490 O   0  0  0  0  0
   -2.8680   -1.4280   -7.0150 C   0  0  0  0  0
    1.6090    1.0590    4.7840 H   0  0  0  0  0
    1.0910    0.2150    7.0690 H   0  0  0  0  0
    2.9360   -0.5440    5.9390 H   0  0  0  0  0
   -0.1730   -2.1410    5.5940 H   0  0  0  0  0
    0.8160   -2.5720    7.6180 H   0  0  0  0  0
   -1.4950    0.0420    7.2690 H   0  0  0  0  0
   -3.3780   -0.9520    6.4160 H   0  0  0  0  0
   -1.4700   -0.4160    4.2520 H   0  0  0  0  0
   -4.8200    0.8470    5.0900 H   0  0  0  0  0
   -0.6320    1.3680    2.2060 H   0  0  0  0  0
   -0.2100    1.3130   -0.3270 H   0  0  0  0  0
    1.3840    1.1260   -2.4970 H   0  0  0  0  0
    3.0260    0.5030   -2.2100 H   0  0  0  0  0
    2.5290   -1.4530   -3.6670 H   0  0  0  0  0
    2.7120    1.3310   -4.5200 H   0  0  0  0  0
    3.8370    0.2990   -6.2580 H   0  0  0  0  0
    0.6960    1.3290   -5.7340 H   0  0  0  0  0
    2.2340    1.1120   -7.4150 H   0  0  0  0  0
    0.8460   -1.7300   -5.9390 H   0  0  0  0  0
   -1.0190   -2.4460   -7.0130 H   0  0  0  0  0
   -3.4200    1.3780   -5.4340 H   0  0  0  0  0
   -3.3580   -2.1550   -7.6460 H   0  0  0  0  0
  1  2  1  0  0  0
  1  9  1  0  0  0
  1 16  1  0  0  0
  1 38  1  0  0  0
  2  3  1  0  0  0
  2  4  1  0  0  0
  2 39  1  0  0  0
  3 40  1  0  0  0
  4  5  1  0  0  0
  4  6  1  0  0  0
  4 41  1  0  0  0
  5 42  1  0  0  0
  6  7  1  0  0  0
  6  8  1  0  0  0
  6 43  1  0  0  0
  7 44  1  0  0  0
  8  9  1  0  0  0
  8 10  1  0  0  0
  8 45  1  0  0  0
 10 11  2  0  0  0
 10 12  1  0  0  0
 12 46  1  0  0  0
 13 14  2  0  0  0
 13 15  1  0  0  0
 13 16  1  0  0  0
 13 17  1  0  0  0
 15 47  1  0  0  0
 17 18  1  0  0  0
 18 19  2  0  0  0
 18 20  1  0  0  0
 18 21  1  0  0  0
 20 48  1  0  0  0
 21 22  1  0  0  0
 22 23  1  0  0  0
 22 49  1  0  0  0
 22 50  1  0  0  0
 23 24  1  0  0  0
 23 25  1  0  0  0
 23 51  1  0  0  0
 24 29  1  0  0  0
 25 26  1  0  0  0
 25 27  1  0  0  0
 25 52  1  0  0  0
 26 53  1  0  0  0
 27 28  1  0  0  0
 27 29  1  0  0  0
 27 54  1  0  0  0
 28 55  1  0  0  0
 29 30  1  0  0  0
 29 56  1  0  0  0
 30 31  1  0  0  0
 30 32  1  0  0  0
 31 37  2  0  0  0
 31 57  1  0  0  0
 32 33  2  0  0  0
 32 34  1  0  0  0
 34 35  1  0  0  0
 34 58  1  0  0  0
 35 36  2  0  0  0
 35 37  1  0  0  0
 37 59  1  0  0  0
M  END
$$$$
