UGU
  CCTOOLS-0919241038

 59 59  0  0  1  0  0  0  0  0999 V2000
    3.8760   -3.0810   -0.0290 C   0  0  0  0  0
    4.4230   -1.7060    0.3610 C   0  0  0  0  0
    3.2740   -0.8160    0.8370 C   0  0  0  0  0
    3.8130    0.5380    1.2220 C   0  0  0  0  0
    3.2830    1.6220    0.7130 C   0  0  0  0  0
    2.0300    1.5300   -0.1190 C   0  0  0  0  0
    0.9720    2.4790    0.4450 C   0  0  0  0  0
    1.4250    3.9390    0.2690 C   0  0  0  0  0
    2.7020    3.9810   -0.3700 O   0  0  0  0  0
   -0.3470    2.3290   -0.3420 C   0  0  0  0  0
   -0.9100    3.7690   -0.4190 C   0  0  0  0  0
   -1.7930    3.9090   -1.5330 O   0  0  0  0  0
    0.3660    4.6250   -0.6190 C   0  0  0  0  0
   -1.3020    1.4270    0.3970 C   0  0  0  0  0
   -1.7300    0.3250   -0.1660 C   0  0  0  0  0
   -2.6860   -0.5760    0.5730 C   0  0  0  0  0
   -3.0640    0.0390    1.8060 O   0  0  0  0  0
   -3.9320   -0.8100   -0.2830 C   0  0  0  0  0
   -4.8460   -1.8220    0.4110 C   0  0  0  0  0
   -6.0920   -2.0550   -0.4450 C   0  0  0  0  0
   -7.0060   -3.0670    0.2490 C   0  0  0  0  0
   -8.2520   -3.3010   -0.6080 C   0  0  0  0  0
    6.1370   -3.5280   -0.5190 O   0  0  0  0  0
    5.0080   -3.9580   -0.4980 C   0  0  0  0  0
    4.7620   -5.2170   -0.8940 O   0  0  0  0  0
    3.3950   -3.5390    0.8350 H   0  0  0  0  0
    3.1470   -2.9670   -0.8320 H   0  0  0  0  0
    5.1520   -1.8200    1.1640 H   0  0  0  0  0
    4.9040   -1.2480   -0.5030 H   0  0  0  0  0
    2.5460   -0.7020    0.0350 H   0  0  0  0  0
    2.7930   -1.2740    1.7020 H   0  0  0  0  0
    4.6370    0.6140    1.9160 H   0  0  0  0  0
    3.7440    2.5830    0.8910 H   0  0  0  0  0
    2.2570    1.8090   -1.1480 H   0  0  0  0  0
    1.6530    0.5080   -0.0950 H   0  0  0  0  0
    0.8030    2.2650    1.5010 H   0  0  0  0  0
    1.4750    4.4340    1.2390 H   0  0  0  0  0
    3.0420    4.8760   -0.5100 H   0  0  0  0  0
   -0.1520    1.9390   -1.3410 H   0  0  0  0  0
   -1.4160    4.0360    0.5090 H   0  0  0  0  0
   -2.1730    4.7940   -1.6250 H   0  0  0  0  0
    0.1950    5.6490   -0.2870 H   0  0  0  0  0
    0.6760    4.6090   -1.6640 H   0  0  0  0  0
   -1.6340    1.6910    1.3900 H   0  0  0  0  0
   -1.3980    0.0610   -1.1590 H   0  0  0  0  0
   -2.2010   -1.5310    0.7760 H   0  0  0  0  0
   -3.5020    0.8940    1.7010 H   0  0  0  0  0
   -4.4660    0.1320   -0.4130 H   0  0  0  0  0
   -3.6360   -1.1960   -1.2580 H   0  0  0  0  0
   -4.3120   -2.7640    0.5400 H   0  0  0  0  0
   -5.1420   -1.4350    1.3860 H   0  0  0  0  0
   -6.6260   -1.1130   -0.5750 H   0  0  0  0  0
   -5.7960   -2.4420   -1.4210 H   0  0  0  0  0
   -6.4720   -4.0090    0.3780 H   0  0  0  0  0
   -7.3020   -2.6810    1.2240 H   0  0  0  0  0
   -8.7850   -2.3590   -0.7370 H   0  0  0  0  0
   -7.9560   -3.6870   -1.5830 H   0  0  0  0  0
   -8.9030   -4.0220   -0.1130 H   0  0  0  0  0
    5.5200   -5.7410   -1.1860 H   0  0  0  0  0
  1 24  1  0  0  0
  1  2  1  0  0  0
  1 26  1  0  0  0
  1 27  1  0  0  0
  2 28  1  0  0  0
  2 29  1  0  0  0
  3  2  1  0  0  0
  3  4  1  0  0  0
  3 30  1  0  0  0
  3 31  1  0  0  0
  4  5  2  0  0  0
  4 32  1  0  0  0
  5  6  1  0  0  0
  5 33  1  0  0  0
  6  7  1  0  0  0
  6 34  1  0  0  0
  6 35  1  0  0  0
  7  8  1  0  0  0
  7 10  1  0  0  0
  7 36  1  0  0  0
  8 13  1  0  0  0
  8 37  1  0  0  0
  9  8  1  0  0  0
  9 38  1  0  0  0
 10 14  1  0  0  0
 10 11  1  0  0  0
 10 39  1  0  0  0
 11 12  1  0  0  0
 11 40  1  0  0  0
 12 41  1  0  0  0
 13 11  1  0  0  0
 13 42  1  0  0  0
 13 43  1  0  0  0
 14 15  2  0  0  0
 14 44  1  0  0  0
 15 16  1  0  0  0
 15 45  1  0  0  0
 16 17  1  0  0  0
 16 46  1  0  0  0
 17 47  1  0  0  0
 18 16  1  0  0  0
 18 19  1  0  0  0
 18 48  1  0  0  0
 18 49  1  0  0  0
 19 50  1  0  0  0
 19 51  1  0  0  0
 20 19  1  0  0  0
 20 52  1  0  0  0
 20 53  1  0  0  0
 21 20  1  0  0  0
 21 54  1  0  0  0
 21 55  1  0  0  0
 22 21  1  0  0  0
 22 56  1  0  0  0
 22 57  1  0  0  0
 22 58  1  0  0  0
 23 24  2  0  0  0
 24 25  1  0  0  0
 25 59  1  0  0  0
M  END
$$$$
