UJF
  CCTOOLS-0919241039

 32 33  0  0  0  0  0  0  0  0999 V2000
    1.8810    2.0130   -0.4250 C   0  0  0  0  0
    3.0190    2.9780   -0.6350 C   0  0  0  0  0
   -5.0850    0.8600    0.0270 C   0  0  0  0  0
   -4.5620    0.3820    1.2190 C   0  0  0  0  0
   -3.2740   -0.1170    1.2570 C   0  0  0  0  0
   -2.5050   -0.1390    0.1030 C   0  0  0  0  0
   -3.0280    0.3400   -1.0890 C   0  0  0  0  0
   -4.3180    0.8330   -1.1280 C   0  0  0  0  0
   -0.2110    0.2410   -0.0500 C   0  0  0  0  0
   -0.4620    1.6020   -0.1460 C   0  0  0  0  0
    0.5830    2.4840   -0.3390 C   0  0  0  0  0
    2.1350    0.6580   -0.3230 C   0  0  0  0  0
    1.0920   -0.2300   -0.1360 C   0  0  0  0  0
    3.5490    3.4450    0.7220 C   0  0  0  0  0
    1.4770   -2.2840    0.0080 I   0  0  0  0  0
    4.6580    4.3860    0.5170 N   0  0  0  0  0
   -6.3530    1.3500   -0.0110 O   0  0  0  0  0
   -1.2370   -0.6290    0.1400 O   0  0  0  0  0
    3.8180    2.4830   -1.1860 H   0  0  0  0  0
    2.6650    3.8390   -1.2030 H   0  0  0  0  0
   -5.1610    0.3990    2.1170 H   0  0  0  0  0
   -2.8660   -0.4890    2.1850 H   0  0  0  0  0
   -2.4300    0.3190   -1.9880 H   0  0  0  0  0
   -4.7250    1.2060   -2.0560 H   0  0  0  0  0
   -1.4750    1.9700   -0.0800 H   0  0  0  0  0
    0.3870    3.5430   -0.4240 H   0  0  0  0  0
    3.1490    0.2930   -0.3900 H   0  0  0  0  0
    2.7500    3.9410    1.2730 H   0  0  0  0  0
    3.9030    2.5850    1.2900 H   0  0  0  0  0
    4.3720    5.1620   -0.0620 H   0  0  0  0  0
    5.0260    4.7090    1.3990 H   0  0  0  0  0
   -6.4130    2.2990    0.1680 H   0  0  0  0  0
  1 11  1  0  0  0
  1  2  1  0  0  0
  2 14  1  0  0  0
  2 19  1  0  0  0
  2 20  1  0  0  0
  3 17  1  0  0  0
  3  4  2  0  0  0
  4 21  1  0  0  0
  5  4  1  0  0  0
  5 22  1  0  0  0
  6  5  2  0  0  0
  7  8  2  0  0  0
  7  6  1  0  0  0
  7 23  1  0  0  0
  8  3  1  0  0  0
  8 24  1  0  0  0
  9 10  1  0  0  0
 10 11  2  0  0  0
 10 25  1  0  0  0
 11 26  1  0  0  0
 12  1  2  0  0  0
 12 27  1  0  0  0
 13  9  2  0  0  0
 13 12  1  0  0  0
 14 28  1  0  0  0
 14 29  1  0  0  0
 15 13  1  0  0  0
 16 14  1  0  0  0
 16 30  1  0  0  0
 16 31  1  0  0  0
 17 32  1  0  0  0
 18  6  1  0  0  0
 18  9  1  0  0  0
M  END
$$$$
