UJL
  CCTOOLS-0919241039

 25 26  0  0  1  0  0  0  0  0999 V2000
    4.1770   -1.0110    0.4720 C   0  0  0  0  0
    1.8090   -0.6150    0.1550 C   0  0  0  0  0
    0.7870    0.3100   -0.5090 C   0  0  0  0  0
   -0.1210    2.5250   -0.3820 C   0  0  0  0  0
   -1.4110    2.1430    0.3510 C   0  0  0  0  0
   -1.6170    0.6420    0.1910 C   0  0  0  0  0
   -2.8160   -0.0200    0.4230 C   0  0  0  0  0
   -2.7930   -1.3360    0.2270 C   0  0  0  0  0
   -0.6140   -0.1710   -0.1980 C   0  0  0  0  0
    3.1670   -0.1450   -0.1500 N   0  0  0  0  0
    0.9310    1.6380    0.0070 O   0  0  0  0  0
   -1.1840   -1.8290   -0.2820 S   0  0  0  0  0
    4.0410   -1.0080    1.5540 H   0  0  0  0  0
    4.0660   -2.0270    0.0950 H   0  0  0  0  0
    5.1730   -0.6400    0.2300 H   0  0  0  0  0
    1.6570   -0.6100    1.2340 H   0  0  0  0  0
    1.6820   -1.6290   -0.2250 H   0  0  0  0  0
    0.9430    0.3150   -1.5880 H   0  0  0  0  0
   -0.2790    2.4510   -1.4580 H   0  0  0  0  0
    0.1530    3.5490   -0.1250 H   0  0  0  0  0
   -1.3210    2.3920    1.4090 H   0  0  0  0  0
   -2.2540    2.6790   -0.0830 H   0  0  0  0  0
   -3.7080    0.4990    0.7400 H   0  0  0  0  0
   -3.6340   -2.0000    0.3600 H   0  0  0  0  0
    3.2890    0.8160    0.1340 H   0  0  0  0  0
  1 10  1  0  0  0
  1 13  1  0  0  0
  1 14  1  0  0  0
  1 15  1  0  0  0
  2  3  1  0  0  0
  2 16  1  0  0  0
  2 17  1  0  0  0
  3  9  1  0  0  0
  3 18  1  0  0  0
  4  5  1  0  0  0
  4 19  1  0  0  0
  4 20  1  0  0  0
  5  6  1  0  0  0
  5 21  1  0  0  0
  5 22  1  0  0  0
  6  7  1  0  0  0
  7 23  1  0  0  0
  8  7  2  0  0  0
  8 24  1  0  0  0
  9 12  1  0  0  0
  9  6  2  0  0  0
 10  2  1  0  0  0
 10 25  1  0  0  0
 11  3  1  0  0  0
 11  4  1  0  0  0
 12  8  1  0  0  0
M  END
$$$$
