V6X
  CCTOOLS-0919241042

 43 47  0  0  0  0  0  0  0  0999 V2000
    0.4950   -0.4320   -1.2200 C   0  0  0  0  0
    3.4560    2.1990    0.2500 C   0  0  0  0  0
    4.8200    2.1410    0.1730 C   0  0  0  0  0
    5.4380    0.9040    0.0070 C   0  0  0  0  0
    5.5410   -1.3660   -0.2420 C   0  0  0  0  0
   -1.8970   -1.5010    2.1720 C   0  0  0  0  0
   -1.0540   -1.1260    0.9800 C   0  0  0  0  0
   -1.6550   -0.5850   -0.1590 C   0  0  0  0  0
   -3.1170   -0.3790   -0.1980 C   0  0  0  0  0
   -3.9570   -1.4420   -0.3590 C   0  0  0  0  0
   -3.3820   -2.8280   -0.4960 C   0  0  0  0  0
   -5.8220   -0.0860   -0.2800 C   0  0  0  0  0
   -5.0060    1.0480   -0.1010 C   0  0  0  0  0
   -4.1190    3.0020    0.1880 C   0  0  0  0  0
   -3.0950    2.1180    0.1150 C   0  0  0  0  0
   -0.8690   -0.2330   -1.2580 C   0  0  0  0  0
    1.0870   -0.9810   -0.0890 C   0  0  0  0  0
    3.2340   -0.0920    0.0170 C   0  0  0  0  0
    4.6210   -0.2380   -0.0720 C   0  0  0  0  0
    6.7760   -0.8430   -0.2500 C   0  0  0  0  0
    0.3090   -1.3270    1.0090 C   0  0  0  0  0
   -5.2770   -1.2740   -0.3960 N   0  0  0  0  0
   -5.2670    2.3360    0.0550 N   0  0  0  0  0
   -3.6420    0.8850   -0.0660 N   0  0  0  0  0
    2.7080    1.1110    0.1730 N   0  0  0  0  0
    2.4300   -1.1810   -0.0580 O   0  0  0  0  0
    6.7130    0.4930   -0.1040 O   0  0  0  0  0
    1.1030   -0.1650   -2.0710 H   0  0  0  0  0
    2.9780    3.1580    0.3830 H   0  0  0  0  0
    5.4100    3.0430    0.2380 H   0  0  0  0  0
    5.2780   -2.4090   -0.3390 H   0  0  0  0  0
   -1.9690   -0.6500    2.8490 H   0  0  0  0  0
   -2.8950   -1.7850    1.8370 H   0  0  0  0  0
   -1.4360   -2.3410    2.6930 H   0  0  0  0  0
   -3.2880   -3.2820    0.4900 H   0  0  0  0  0
   -4.0430   -3.4360   -1.1140 H   0  0  0  0  0
   -2.3990   -2.7690   -0.9640 H   0  0  0  0  0
   -6.8960    0.0220   -0.3140 H   0  0  0  0  0
   -4.0220    4.0680    0.3300 H   0  0  0  0  0
   -2.0430    2.3480    0.1880 H   0  0  0  0  0
   -1.3280    0.1940   -2.1370 H   0  0  0  0  0
    7.6880   -1.4110   -0.3590 H   0  0  0  0  0
    0.7740   -1.7460    1.8890 H   0  0  0  0  0
  1 17  2  0  0  0
  1 28  1  0  0  0
  2  3  2  0  0  0
  2 25  1  0  0  0
  2 29  1  0  0  0
  3  4  1  0  0  0
  3 30  1  0  0  0
  4 27  1  0  0  0
  4 19  2  0  0  0
  5 31  1  0  0  0
  6 32  1  0  0  0
  6 33  1  0  0  0
  6 34  1  0  0  0
  7  6  1  0  0  0
  7 21  2  0  0  0
  8  7  1  0  0  0
  9 10  2  0  0  0
  9  8  1  0  0  0
 10 11  1  0  0  0
 11 35  1  0  0  0
 11 36  1  0  0  0
 11 37  1  0  0  0
 12 22  2  0  0  0
 12 38  1  0  0  0
 13 24  1  0  0  0
 13 12  1  0  0  0
 14 23  1  0  0  0
 14 15  2  0  0  0
 14 39  1  0  0  0
 15 24  1  0  0  0
 15 40  1  0  0  0
 16  8  2  0  0  0
 16  1  1  0  0  0
 16 41  1  0  0  0
 17 21  1  0  0  0
 17 26  1  0  0  0
 18 19  1  0  0  0
 18 26  1  0  0  0
 19  5  1  0  0  0
 20  5  2  0  0  0
 20 42  1  0  0  0
 21 43  1  0  0  0
 22 10  1  0  0  0
 23 13  2  0  0  0
 24  9  1  0  0  0
 25 18  2  0  0  0
 27 20  1  0  0  0
M  END
$$$$
