V8D
  CCTOOLS-0919241042

 34 35  0  0  1  0  0  0  0  0999 V2000
   -0.4190   -0.0370   -0.9790 C   0  0  0  0  0
   -1.7020   -0.4140   -0.2850 C   0  0  0  0  0
   -0.7000    0.2340   -2.4580 C   0  0  0  0  0
    1.3690    1.2850    0.2530 C   0  0  0  0  0
   -0.4600    2.3720   -0.2770 C   0  0  0  0  0
   -2.7660    0.4680   -0.2710 C   0  0  0  0  0
   -1.8170   -1.6450    0.3330 C   0  0  0  0  0
    1.4630    2.5790    0.6850 C   0  0  0  0  0
    2.3740    0.2300    0.4130 C   0  0  0  0  0
   -3.9450    0.1200    0.3610 C   0  0  0  0  0
   -2.9940   -1.9920    0.9700 C   0  0  0  0  0
   -4.0600   -1.1110    0.9790 C   0  0  0  0  0
    3.1730   -2.0030    0.1310 C   0  0  0  0  0
    2.7230   -3.3360   -0.4720 C   0  0  0  0  0
    0.1360    1.1690   -0.3590 N   0  0  0  0  0
    0.3360    3.2040    0.3450 N   0  0  0  0  0
    2.1340   -1.0080   -0.0640 O   0  0  0  0  0
    3.4250    0.4710    0.9760 O   0  0  0  0  0
    0.2970   -0.8540   -0.8890 H   0  0  0  0  0
    0.2280    0.5070   -2.9610 H   0  0  0  0  0
   -1.1120   -0.6630   -2.9200 H   0  0  0  0  0
   -1.4160    1.0510   -2.5490 H   0  0  0  0  0
   -1.4390    2.6130   -0.6630 H   0  0  0  0  0
   -2.6760    1.4300   -0.7550 H   0  0  0  0  0
   -0.9870   -2.3360    0.3190 H   0  0  0  0  0
    2.3010    3.0170    1.2080 H   0  0  0  0  0
   -4.7770    0.8080    0.3680 H   0  0  0  0  0
   -3.0840   -2.9540    1.4530 H   0  0  0  0  0
   -4.9810   -1.3830    1.4730 H   0  0  0  0  0
    3.3590   -2.1310    1.1970 H   0  0  0  0  0
    4.0880   -1.6730   -0.3610 H   0  0  0  0  0
    1.8080   -3.6660    0.0190 H   0  0  0  0  0
    2.5370   -3.2080   -1.5390 H   0  0  0  0  0
    3.5040   -4.0820   -0.3260 H   0  0  0  0  0
  1  3  1  0  0  0
  1 15  1  0  0  0
  1 19  1  0  0  0
  2  7  1  0  0  0
  2  1  1  0  0  0
  3 20  1  0  0  0
  3 21  1  0  0  0
  3 22  1  0  0  0
  4 15  1  0  0  0
  4  8  2  0  0  0
  5 16  2  0  0  0
  5 23  1  0  0  0
  6  2  2  0  0  0
  6 24  1  0  0  0
  7 25  1  0  0  0
  8 16  1  0  0  0
  8 26  1  0  0  0
  9 17  1  0  0  0
  9  4  1  0  0  0
 10 12  2  0  0  0
 10  6  1  0  0  0
 10 27  1  0  0  0
 11  7  2  0  0  0
 11 28  1  0  0  0
 12 11  1  0  0  0
 12 29  1  0  0  0
 13 14  1  0  0  0
 13 17  1  0  0  0
 13 30  1  0  0  0
 13 31  1  0  0  0
 14 32  1  0  0  0
 14 33  1  0  0  0
 14 34  1  0  0  0
 15  5  1  0  0  0
 18  9  2  0  0  0
M  END
$$$$
