VBU
  CCTOOLS-1115241517

 42 45  0  0  0  0  0  0  0  0999 V2000
    3.1950    0.1350   -0.6270 C   0  0  0  0  0
    2.0880   -2.1330   -0.5710 C   0  0  0  0  0
    4.2610   -0.4170    0.3250 C   0  0  0  0  0
    3.1980   -2.5960    0.3790 C   0  0  0  0  0
    0.7550   -0.0700   -0.2560 C   0  0  0  0  0
    0.7160    1.3980   -0.3290 C   0  0  0  0  0
    5.5630   -2.3890    0.8540 C   0  0  0  0  0
   -0.0580    2.1380    0.5750 C   0  0  0  0  0
   -1.5350   -0.5010    0.2290 C   0  0  0  0  0
   -1.8740    0.6130    0.9900 C   0  0  0  0  0
    1.4600    2.0690   -1.3010 C   0  0  0  0  0
   -0.0460    3.5220    0.5270 C   0  0  0  0  0
    1.4500    3.4480   -1.3470 C   0  0  0  0  0
   -2.5550   -1.2860   -0.3150 C   0  0  0  0  0
    0.7060    4.1740   -0.4330 C   0  0  0  0  0
   -3.2050    0.8900    1.2540 C   0  0  0  0  0
   -3.8780   -0.9810   -0.0570 C   0  0  0  0  0
   -4.2020    0.0840    0.7300 C   0  0  0  0  0
    1.9730   -0.6700   -0.4780 N   0  0  0  0  0
    4.4320   -1.8560    0.0830 N   0  0  0  0  0
   -0.2370   -0.8480   -0.0010 N   0  0  0  0  0
   -0.8820    1.4740    1.4870 N   0  0  0  0  0
   -5.1400   -1.9580   -0.7390 CL  0  0  0  0  0
    2.9820    1.1740   -0.3750 H   0  0  0  0  0
    3.5530    0.0700   -1.6550 H   0  0  0  0  0
    2.3400   -2.4160   -1.5940 H   0  0  0  0  0
    1.1440   -2.5960   -0.2850 H   0  0  0  0  0
    5.2070    0.0960    0.1500 H   0  0  0  0  0
    3.9460   -0.2570    1.3560 H   0  0  0  0  0
    2.8970   -2.4050    1.4090 H   0  0  0  0  0
    3.3720   -3.6630    0.2420 H   0  0  0  0  0
    5.3840   -2.2330    1.9180 H   0  0  0  0  0
    5.6670   -3.4560    0.6560 H   0  0  0  0  0
    6.4770   -1.8740    0.5600 H   0  0  0  0  0
    2.0450    1.5100   -2.0160 H   0  0  0  0  0
   -0.6240    4.0920    1.2390 H   0  0  0  0  0
    2.0260    3.9640   -2.1010 H   0  0  0  0  0
   -2.3090   -2.1340   -0.9380 H   0  0  0  0  0
    0.7140    5.2540   -0.4690 H   0  0  0  0  0
   -3.4670    1.7370    1.8710 H   0  0  0  0  0
   -5.2390    0.3050    0.9380 H   0  0  0  0  0
   -0.7760    1.6100    2.4410 H   0  0  0  0  0
  1  3  1  0  0  0
  1 19  1  0  0  0
  1 24  1  0  0  0
  1 25  1  0  0  0
  2 26  1  0  0  0
  2 27  1  0  0  0
  3 20  1  0  0  0
  3 28  1  0  0  0
  3 29  1  0  0  0
  4  2  1  0  0  0
  4 30  1  0  0  0
  4 31  1  0  0  0
  5  6  1  0  0  0
  6  8  2  0  0  0
  6 11  1  0  0  0
  7 20  1  0  0  0
  7 32  1  0  0  0
  7 33  1  0  0  0
  7 34  1  0  0  0
  8 12  1  0  0  0
  9 21  1  0  0  0
  9 10  2  0  0  0
 10 22  1  0  0  0
 11 13  2  0  0  0
 11 35  1  0  0  0
 12 15  2  0  0  0
 12 36  1  0  0  0
 13 15  1  0  0  0
 13 37  1  0  0  0
 14  9  1  0  0  0
 14 38  1  0  0  0
 15 39  1  0  0  0
 16 10  1  0  0  0
 16 40  1  0  0  0
 17 14  2  0  0  0
 17 18  1  0  0  0
 18 16  2  0  0  0
 18 41  1  0  0  0
 19  5  1  0  0  0
 19  2  1  0  0  0
 20  4  1  0  0  0
 21  5  2  0  0  0
 22  8  1  0  0  0
 22 42  1  0  0  0
 23 17  1  0  0  0
M  END
$$$$
