VCF
  CCTOOLS-0919241043

 41 44  0  0  0  0  0  0  0  0999 V2000
   -1.8730    0.0610   -0.6260 C   0  0  0  0  0
   -3.2510    0.0220   -0.7520 C   0  0  0  0  0
   -4.0440    0.8990   -0.0300 C   0  0  0  0  0
   -3.4610    1.8180    0.8240 C   0  0  0  0  0
   -2.0870    1.8740    0.9510 C   0  0  0  0  0
    1.0160   -3.5540    0.9810 C   0  0  0  0  0
    1.3020   -2.2080    1.0790 C   0  0  0  0  0
    0.5980   -1.2870    0.3010 C   0  0  0  0  0
   -5.7710    0.8450   -0.1960 CL  0  0  0  0  0
    5.9660    1.6820   -1.0350 C   0  0  0  0  0
    4.8330    1.2660   -0.1980 N   0  0  0  0  0
    3.7430    2.2490   -0.2610 C   0  0  0  0  0
    2.6620    1.8750    0.7580 C   0  0  0  0  0
    2.2570    0.4810    0.5190 N   0  0  0  0  0
    3.3080   -0.5440    0.4320 C   0  0  0  0  0
    4.3640   -0.0740   -0.5750 C   0  0  0  0  0
    0.9290    0.1450    0.3800 C   0  0  0  0  0
    0.0760    1.1100    0.3300 N   0  0  0  0  0
   -1.2770    1.0030    0.2160 C   0  0  0  0  0
   -1.1250   -0.8530   -1.2960 O   0  0  0  0  0
   -0.4010   -1.7380   -0.5680 C   0  0  0  0  0
   -0.6670   -3.0930   -0.6670 C   0  0  0  0  0
    0.0390   -3.9970    0.1080 C   0  0  0  0  0
   -3.7100   -0.6940   -1.4180 H   0  0  0  0  0
   -4.0820    2.4940    1.3930 H   0  0  0  0  0
   -1.6370    2.5940    1.6180 H   0  0  0  0  0
    1.5570   -4.2650    1.5880 H   0  0  0  0  0
    2.0710   -1.8670    1.7570 H   0  0  0  0  0
    5.6580    1.7000   -2.0800 H   0  0  0  0  0
    6.2930    2.6770   -0.7350 H   0  0  0  0  0
    6.7880    0.9760   -0.9100 H   0  0  0  0  0
    4.1330    3.2400   -0.0300 H   0  0  0  0  0
    3.3140    2.2520   -1.2630 H   0  0  0  0  0
    3.0610    1.9720    1.7680 H   0  0  0  0  0
    1.8010    2.5320    0.6370 H   0  0  0  0  0
    3.7690   -0.6790    1.4100 H   0  0  0  0  0
    2.8740   -1.4850    0.0950 H   0  0  0  0  0
    3.9250   -0.0390   -1.5720 H   0  0  0  0  0
    5.2040   -0.7680   -0.5700 H   0  0  0  0  0
   -1.4260   -3.4460   -1.3490 H   0  0  0  0  0
   -0.1740   -5.0530    0.0300 H   0  0  0  0  0
  1  2  2  0  0  0
  1 19  1  0  0  0
  2  3  1  0  0  0
  2 24  1  0  0  0
  3  9  1  0  0  0
  3  4  2  0  0  0
  4 25  1  0  0  0
  5  4  1  0  0  0
  5 26  1  0  0  0
  6  7  1  0  0  0
  6 27  1  0  0  0
  7  8  2  0  0  0
  7 28  1  0  0  0
  8 17  1  0  0  0
 10 29  1  0  0  0
 10 30  1  0  0  0
 10 31  1  0  0  0
 11 10  1  0  0  0
 11 16  1  0  0  0
 12 11  1  0  0  0
 12 32  1  0  0  0
 12 33  1  0  0  0
 13 12  1  0  0  0
 13 14  1  0  0  0
 13 34  1  0  0  0
 13 35  1  0  0  0
 14 15  1  0  0  0
 15 16  1  0  0  0
 15 36  1  0  0  0
 15 37  1  0  0  0
 16 38  1  0  0  0
 16 39  1  0  0  0
 17 14  1  0  0  0
 17 18  2  0  0  0
 18 19  1  0  0  0
 19  5  2  0  0  0
 20  1  1  0  0  0
 21  8  1  0  0  0
 21 20  1  0  0  0
 22 21  2  0  0  0
 22 40  1  0  0  0
 23  6  2  0  0  0
 23 22  1  0  0  0
 23 41  1  0  0  0
M  END
$$$$
