VCL
  CCTOOLS-0919241043

 37 38  0  0  0  0  0  0  0  0999 V2000
   -5.7710   -0.4750   -0.3050 C   0  0  0  0  0
   -6.9810   -0.0350    0.0920 C   0  0  0  0  0
   -6.8780   -2.2050    0.3560 C   0  0  0  0  0
    6.7530   -1.8600   -0.6120 CL  0  0  0  0  0
    4.4500    1.0660    0.8310 C   0  0  0  0  0
    5.5450    0.3400    0.4020 C   0  0  0  0  0
    5.3780   -0.9490   -0.0710 C   0  0  0  0  0
    4.1150   -1.5120   -0.1140 C   0  0  0  0  0
    3.0200   -0.7850    0.3160 C   0  0  0  0  0
    3.1880    0.5030    0.7890 C   0  0  0  0  0
    1.9950    1.2920    1.2630 C   0  0  0  0  0
    1.5020    2.1360    0.1720 N   0  0  0  0  0
    0.3140    1.9310   -0.3260 C   0  0  0  0  0
   -0.1060    2.6470   -1.4230 N   0  0  0  0  0
   -0.7540    0.7370    0.4080 S   0  0  0  0  0
   -2.2520    1.0110   -0.5710 C   0  0  0  0  0
   -3.3870    0.1460   -0.0200 C   0  0  0  0  0
   -4.6530    0.3780   -0.8470 C   0  0  0  0  0
   -7.6830   -1.1330    0.5110 N   0  0  0  0  0
   -5.7340   -1.8040   -0.1270 N   0  0  0  0  0
   -7.3290    0.9870    0.0810 H   0  0  0  0  0
   -7.1350   -3.2260    0.5990 H   0  0  0  0  0
    4.5800    2.0710    1.2050 H   0  0  0  0  0
    6.5310    0.7800    0.4350 H   0  0  0  0  0
    3.9840   -2.5180   -0.4830 H   0  0  0  0  0
    2.0340   -1.2240    0.2830 H   0  0  0  0  0
    1.2070    0.6070    1.5770 H   0  0  0  0  0
    2.2860    1.9200    2.1050 H   0  0  0  0  0
    0.4820    3.3050   -1.8260 H   0  0  0  0  0
   -2.5360    2.0620   -0.5130 H   0  0  0  0  0
   -2.0620    0.7430   -1.6100 H   0  0  0  0  0
   -3.1030   -0.9050   -0.0770 H   0  0  0  0  0
   -3.5780    0.4140    1.0190 H   0  0  0  0  0
   -4.4630    0.1090   -1.8860 H   0  0  0  0  0
   -4.9370    1.4290   -0.7900 H   0  0  0  0  0
   -8.5910   -1.1390    0.8530 H   0  0  0  0  0
   -0.9890    2.4950   -1.7930 H   0  0  0  0  0
  1  2  2  0  0  0
  1 18  1  0  0  0
  2 21  1  0  0  0
  3 20  2  0  0  0
  3 19  1  0  0  0
  3 22  1  0  0  0
  4  7  1  0  0  0
  5 10  2  0  0  0
  5 23  1  0  0  0
  6  5  1  0  0  0
  6 24  1  0  0  0
  7  6  2  0  0  0
  7  8  1  0  0  0
  8  9  2  0  0  0
  8 25  1  0  0  0
  9 10  1  0  0  0
  9 26  1  0  0  0
 10 11  1  0  0  0
 11 12  1  0  0  0
 11 27  1  0  0  0
 11 28  1  0  0  0
 12 13  2  0  0  0
 13 14  1  0  0  0
 14 29  1  0  0  0
 14 37  1  0  0  0
 15 16  1  0  0  0
 15 13  1  0  0  0
 16 30  1  0  0  0
 16 31  1  0  0  0
 17 18  1  0  0  0
 17 16  1  0  0  0
 17 32  1  0  0  0
 17 33  1  0  0  0
 18 34  1  0  0  0
 18 35  1  0  0  0
 19  2  1  0  0  0
 19 36  1  0  0  0
 20  1  1  0  0  0
M  END
$$$$
