VF0
  CCTOOLS-0919241043

 69 68  0  0  1  0  0  0  0  0999 V2000
  -10.8870   -1.2320    0.5900 C   0  0  0  0  0
   -7.1220   -1.5280   -0.0380 C   0  0  0  0  0
   -4.6430   -1.2350   -0.1470 C   0  0  0  0  0
   -2.1640   -0.9430   -0.2560 C   0  0  0  0  0
    1.3060    0.4950    0.2310 C   0  0  0  0  0
    2.6510   -0.0420   -0.2620 C   0  0  0  0  0
    3.7810    0.8270    0.2960 C   0  0  0  0  0
  -15.0900    2.7870   -0.7350 C   0  0  0  0  0
  -14.7750    1.5030    0.0360 C   0  0  0  0  0
  -13.4710    0.9000   -0.4900 C   0  0  0  0  0
  -13.1560   -0.3840    0.2810 C   0  0  0  0  0
  -11.8720   -0.9780   -0.2360 C   0  0  0  0  0
   -9.6010   -1.8200    0.0720 C   0  0  0  0  0
   -8.4280   -0.9300    0.4890 C   0  0  0  0  0
   -5.9490   -0.6380    0.3790 C   0  0  0  0  0
   -3.4700   -0.3450    0.2700 C   0  0  0  0  0
   -1.0090   -0.0660    0.1540 C   0  0  0  0  0
    9.0210    0.1960    0.2080 C   0  0  0  0  0
    9.8940   -0.9140   -0.3820 C   0  0  0  0  0
   11.3220   -0.7170    0.0580 C   0  0  0  0  0
    9.8220   -0.8650   -1.8490 N   0  0  0  0  0
   -1.2100    0.9340    0.8010 O   0  0  0  0  0
    0.2430   -0.3960   -0.1990 O   0  0  0  0  0
    2.6840   -0.0070   -1.6900 O   0  0  0  0  0
    5.0420    0.2590   -0.0680 O   0  0  0  0  0
    6.4970    1.0870    1.8210 O   0  0  0  0  0
    6.6120    2.3470   -0.3630 O   0  0  0  0  0
    7.6510   -0.0550   -0.1110 O   0  0  0  0  0
   12.1200   -0.2050   -0.6920 O   0  0  0  0  0
   11.7080   -1.1110    1.2810 O   0  0  0  0  0
    6.4510    0.9130    0.3520 P   0  0  0  0  0
  -10.9970   -1.0150    1.6430 H   0  0  0  0  0
   -6.9860   -2.5260    0.3780 H   0  0  0  0  0
   -7.1620   -1.5890   -1.1250 H   0  0  0  0  0
   -4.5070   -2.2340    0.2690 H   0  0  0  0  0
   -4.6840   -1.2970   -1.2350 H   0  0  0  0  0
   -2.0280   -1.9410    0.1590 H   0  0  0  0  0
   -2.2050   -1.0040   -1.3440 H   0  0  0  0  0
    1.3140    0.5520    1.3200 H   0  0  0  0  0
    1.1370    1.4890   -0.1830 H   0  0  0  0  0
    2.7800   -1.0690    0.0800 H   0  0  0  0  0
    3.7040    1.8330   -0.1170 H   0  0  0  0  0
    3.7030    0.8720    1.3820 H   0  0  0  0  0
  -14.2780    3.5010   -0.5990 H   0  0  0  0  0
  -15.1970    2.5570   -1.7950 H   0  0  0  0  0
  -16.0190    3.2170   -0.3610 H   0  0  0  0  0
  -14.6680    1.7330    1.0960 H   0  0  0  0  0
  -15.5870    0.7890   -0.1010 H   0  0  0  0  0
  -13.5780    0.6700   -1.5500 H   0  0  0  0  0
  -12.6590    1.6140   -0.3530 H   0  0  0  0  0
  -13.0490   -0.1540    1.3410 H   0  0  0  0  0
  -13.9680   -1.0980    0.1450 H   0  0  0  0  0
  -11.7620   -1.1950   -1.2890 H   0  0  0  0  0
   -9.4650   -2.8190    0.4870 H   0  0  0  0  0
   -9.6410   -1.8820   -1.0160 H   0  0  0  0  0
   -8.3870   -0.8690    1.5760 H   0  0  0  0  0
   -8.5640    0.0680    0.0730 H   0  0  0  0  0
   -6.0850    0.3610   -0.0360 H   0  0  0  0  0
   -5.9090   -0.5760    1.4670 H   0  0  0  0  0
   -3.6070    0.6530   -0.1460 H   0  0  0  0  0
   -3.4300   -0.2830    1.3570 H   0  0  0  0  0
    9.1440    0.2170    1.2910 H   0  0  0  0  0
    9.3220    1.1560   -0.2100 H   0  0  0  0  0
    9.5360   -1.8820   -0.0320 H   0  0  0  0  0
    8.8860   -1.0590   -2.1710 H   0  0  0  0  0
   10.1490    0.0230   -2.1970 H   0  0  0  0  0
    2.5750    0.8780   -2.0640 H   0  0  0  0  0
    6.5920    2.3090   -1.3290 H   0  0  0  0  0
   12.6340   -0.9640    1.5180 H   0  0  0  0  0
  1 12  2  0  0  0
  1 32  1  0  0  0
  2 14  1  0  0  0
  2 33  1  0  0  0
  2 34  1  0  0  0
  3 15  1  0  0  0
  3 35  1  0  0  0
  3 36  1  0  0  0
  4 16  1  0  0  0
  4 37  1  0  0  0
  4 38  1  0  0  0
  5 23  1  0  0  0
  5 39  1  0  0  0
  5 40  1  0  0  0
  6  5  1  0  0  0
  6 24  1  0  0  0
  6 41  1  0  0  0
  7  6  1  0  0  0
  7 42  1  0  0  0
  7 43  1  0  0  0
  8 44  1  0  0  0
  8 45  1  0  0  0
  8 46  1  0  0  0
  9  8  1  0  0  0
  9 10  1  0  0  0
  9 47  1  0  0  0
  9 48  1  0  0  0
 10 49  1  0  0  0
 10 50  1  0  0  0
 11 10  1  0  0  0
 11 51  1  0  0  0
 11 52  1  0  0  0
 12 11  1  0  0  0
 12 53  1  0  0  0
 13  1  1  0  0  0
 13 54  1  0  0  0
 13 55  1  0  0  0
 14 13  1  0  0  0
 14 56  1  0  0  0
 14 57  1  0  0  0
 15  2  1  0  0  0
 15 58  1  0  0  0
 15 59  1  0  0  0
 16  3  1  0  0  0
 16 60  1  0  0  0
 16 61  1  0  0  0
 17  4  1  0  0  0
 18 28  1  0  0  0
 18 62  1  0  0  0
 18 63  1  0  0  0
 19 18  1  0  0  0
 19 20  1  0  0  0
 19 64  1  0  0  0
 20 30  1  0  0  0
 21 19  1  0  0  0
 21 65  1  0  0  0
 21 66  1  0  0  0
 22 17  2  0  0  0
 23 17  1  0  0  0
 24 67  1  0  0  0
 25  7  1  0  0  0
 26 31  2  0  0  0
 27 68  1  0  0  0
 28 31  1  0  0  0
 29 20  2  0  0  0
 30 69  1  0  0  0
 31 27  1  0  0  0
 31 25  1  0  0  0
M  END
$$$$
