VMK
  CCTOOLS-0919241045

 30 31  0  0  0  0  0  0  0  0999 V2000
   -2.4240    0.8060   -0.0170 C   0  0  0  0  0
   -3.5860   -1.7010    0.2330 C   0  0  0  0  0
    1.8040    1.1450   -0.4370 C   0  0  0  0  0
    6.1840    0.3630    0.6350 N   0  0  0  0  0
    2.5900    0.0070   -0.4540 C   0  0  0  0  0
    2.0090   -1.2420   -0.3360 C   0  0  0  0  0
    0.6410   -1.3600   -0.1990 C   0  0  0  0  0
   -0.1560   -0.2170   -0.1810 C   0  0  0  0  0
    0.4350    1.0400   -0.2960 C   0  0  0  0  0
    4.0840    0.1300   -0.6040 C   0  0  0  0  0
    4.7270    0.2440    0.7800 C   0  0  0  0  0
   -1.6280   -0.3370   -0.0350 C   0  0  0  0  0
   -3.7940    0.6880    0.1260 C   0  0  0  0  0
   -4.3740   -0.5640    0.2510 C   0  0  0  0  0
   -2.2180   -1.5940    0.0850 C   0  0  0  0  0
   -4.5680    1.7950    0.1440 F   0  0  0  0  0
   -1.9720    1.7820   -0.1100 H   0  0  0  0  0
   -4.0430   -2.6740    0.3260 H   0  0  0  0  0
    2.2630    2.1190   -0.5300 H   0  0  0  0  0
    6.6330    0.4400    1.5360 H   0  0  0  0  0
    6.5600   -0.4120    0.1090 H   0  0  0  0  0
    2.6270   -2.1280   -0.3500 H   0  0  0  0  0
    0.1880   -2.3360   -0.1070 H   0  0  0  0  0
   -0.1780    1.9290   -0.2820 H   0  0  0  0  0
    4.4720   -0.7530   -1.1120 H   0  0  0  0  0
    4.3200    1.0190   -1.1880 H   0  0  0  0  0
    4.4920   -0.6460    1.3650 H   0  0  0  0  0
    4.3400    1.1260    1.2890 H   0  0  0  0  0
   -5.4440   -0.6530    0.3620 H   0  0  0  0  0
   -1.6040   -2.4820    0.0720 H   0  0  0  0  0
  1 12  1  0  0  0
  1 17  1  0  0  0
  2 15  1  0  0  0
  2 18  1  0  0  0
  3 19  1  0  0  0
  4 11  1  0  0  0
  4 20  1  0  0  0
  4 21  1  0  0  0
  5 10  1  0  0  0
  5  3  2  0  0  0
  6  5  1  0  0  0
  6 22  1  0  0  0
  7  6  2  0  0  0
  7  8  1  0  0  0
  7 23  1  0  0  0
  8  9  2  0  0  0
  9  3  1  0  0  0
  9 24  1  0  0  0
 10 25  1  0  0  0
 10 26  1  0  0  0
 11 10  1  0  0  0
 11 27  1  0  0  0
 11 28  1  0  0  0
 12  8  1  0  0  0
 12 15  2  0  0  0
 13  1  2  0  0  0
 13 14  1  0  0  0
 14  2  2  0  0  0
 14 29  1  0  0  0
 15 30  1  0  0  0
 16 13  1  0  0  0
M  END
$$$$
