VMT
  CCTOOLS-0919241045

 20 20  0  0  0  0  0  0  0  0999 V2000
   -0.9310    0.0010   -0.1000 C   0  0  0  0  0
    5.4560    0.0210    0.5050 N   0  0  0  0  0
   -0.2490    1.2010   -0.1920 C   0  0  0  0  0
    1.1210    1.2040   -0.3740 C   0  0  0  0  0
    1.8100    0.0090   -0.4640 C   0  0  0  0  0
    1.1280   -1.1900   -0.3720 C   0  0  0  0  0
   -0.2420   -1.1950   -0.1900 C   0  0  0  0  0
    3.3030    0.0130   -0.6630 C   0  0  0  0  0
    4.0000    0.0170    0.6990 C   0  0  0  0  0
   -2.8050   -0.0040    0.1570 BR  0  0  0  0  0
    5.9390    0.0230    1.3910 H   0  0  0  0  0
    5.7470   -0.7600   -0.0640 H   0  0  0  0  0
   -0.7870    2.1350   -0.1220 H   0  0  0  0  0
    1.6540    2.1410   -0.4460 H   0  0  0  0  0
    1.6670   -2.1240   -0.4430 H   0  0  0  0  0
   -0.7740   -2.1320   -0.1170 H   0  0  0  0  0
    3.5980   -0.8760   -1.2200 H   0  0  0  0  0
    3.5930    0.9040   -1.2220 H   0  0  0  0  0
    3.7100   -0.8730    1.2570 H   0  0  0  0  0
    3.7050    0.9060    1.2560 H   0  0  0  0  0
  1  7  2  0  0  0
  2 11  1  0  0  0
  2 12  1  0  0  0
  3  4  2  0  0  0
  3  1  1  0  0  0
  3 13  1  0  0  0
  4  5  1  0  0  0
  4 14  1  0  0  0
  5  8  1  0  0  0
  5  6  2  0  0  0
  6 15  1  0  0  0
  7  6  1  0  0  0
  7 16  1  0  0  0
  8 17  1  0  0  0
  8 18  1  0  0  0
  9  2  1  0  0  0
  9  8  1  0  0  0
  9 19  1  0  0  0
  9 20  1  0  0  0
 10  1  1  0  0  0
M  END
$$$$
