VRK
  CCTOOLS-0919241027

 51 55  0  0  1  0  0  0  0  0999 V2000
    1.7250   -3.1100    0.4530 C   0  0  0  0  0
    5.2880    2.0750    0.1940 O   0  0  0  0  0
   -1.7950    0.1130   -0.2790 C   0  0  0  0  0
   -1.9990    0.2020    1.2350 C   0  0  0  0  0
   -3.4690    0.5010    1.5350 C   0  0  0  0  0
   -4.3430   -0.6180    0.9680 C   0  0  0  0  0
   -4.5310    0.6230   -1.1920 C   0  0  0  0  0
   -3.6570    1.7430   -0.6250 C   0  0  0  0  0
   -3.8600    1.8320    0.8890 C   0  0  0  0  0
    1.3270   -1.8980   -0.3910 C   0  0  0  0  0
   -0.3250   -0.1870   -0.5790 C   0  0  0  0  0
   -4.1400   -0.7070   -0.5460 C   0  0  0  0  0
   -2.1870    1.4430   -0.9250 C   0  0  0  0  0
   -2.6700   -1.0070   -0.8460 C   0  0  0  0  0
    0.5540    0.9230    0.0000 C   0  0  0  0  0
    2.0020    0.5040   -0.0480 C   0  0  0  0  0
    2.3620   -0.8150   -0.2280 C   0  0  0  0  0
    3.7030   -1.1670   -0.2630 C   0  0  0  0  0
    4.6830   -0.2040   -0.1220 C   0  0  0  0  0
    4.3270    1.1230    0.0560 C   0  0  0  0  0
    2.9830    1.4770    0.0920 C   0  0  0  0  0
    0.7950   -4.2170    0.1910 N   0  0  0  0  0
    0.0480   -1.4270    0.0320 O   0  0  0  0  0
    2.6290    2.7790    0.2660 O   0  0  0  0  0
    2.7380   -3.4170    0.1930 H   0  0  0  0  0
    1.6860   -2.8460    1.5100 H   0  0  0  0  0
    5.5740    2.4700   -0.6420 H   0  0  0  0  0
   -1.7190   -0.7460    1.6950 H   0  0  0  0  0
   -1.3750    0.9990    1.6390 H   0  0  0  0  0
   -3.6140    0.5640    2.6140 H   0  0  0  0  0
   -4.0640   -1.5660    1.4280 H   0  0  0  0  0
   -5.3910   -0.4050    1.1820 H   0  0  0  0  0
   -5.5790    0.8370   -0.9780 H   0  0  0  0  0
   -4.3860    0.5600   -2.2710 H   0  0  0  0  0
   -3.9360    2.6910   -1.0850 H   0  0  0  0  0
   -4.9080    2.0450    1.1030 H   0  0  0  0  0
   -3.2370    2.6290    1.2930 H   0  0  0  0  0
    1.2750   -2.1900   -1.4400 H   0  0  0  0  0
   -0.1770   -0.2500   -1.6570 H   0  0  0  0  0
   -4.7630   -1.5050   -0.9500 H   0  0  0  0  0
   -1.5630    2.2410   -0.5210 H   0  0  0  0  0
   -2.0420    1.3800   -2.0030 H   0  0  0  0  0
   -2.5250   -1.0700   -1.9250 H   0  0  0  0  0
   -2.3910   -1.9550   -0.3860 H   0  0  0  0  0
    0.4210    1.8340   -0.5840 H   0  0  0  0  0
    0.2670    1.1100    1.0350 H   0  0  0  0  0
    3.9830   -2.2010   -0.4010 H   0  0  0  0  0
    5.7250   -0.4860   -0.1490 H   0  0  0  0  0
    1.0370   -5.0300    0.7370 H   0  0  0  0  0
   -0.1580   -3.9360    0.3630 H   0  0  0  0  0
    2.5340    3.2740   -0.5590 H   0  0  0  0  0
  1 22  1  0  0  0
  1 10  1  0  0  0
  1 25  1  0  0  0
  1 26  1  0  0  0
  2 20  1  0  0  0
  2 27  1  0  0  0
  3 14  1  0  0  0
  3  4  1  0  0  0
  4  5  1  0  0  0
  4 28  1  0  0  0
  4 29  1  0  0  0
  5  6  1  0  0  0
  5 30  1  0  0  0
  6 31  1  0  0  0
  6 32  1  0  0  0
  7 12  1  0  0  0
  7 33  1  0  0  0
  7 34  1  0  0  0
  8  7  1  0  0  0
  8  9  1  0  0  0
  8 35  1  0  0  0
  9  5  1  0  0  0
  9 36  1  0  0  0
  9 37  1  0  0  0
 10 23  1  0  0  0
 10 38  1  0  0  0
 11  3  1  0  0  0
 11 39  1  0  0  0
 12  6  1  0  0  0
 12 40  1  0  0  0
 13  3  1  0  0  0
 13  8  1  0  0  0
 13 41  1  0  0  0
 13 42  1  0  0  0
 14 12  1  0  0  0
 14 43  1  0  0  0
 14 44  1  0  0  0
 15 11  1  0  0  0
 15 45  1  0  0  0
 15 46  1  0  0  0
 16 15  1  0  0  0
 17 10  1  0  0  0
 17 16  2  0  0  0
 18 17  1  0  0  0
 18 47  1  0  0  0
 19 18  2  0  0  0
 19 20  1  0  0  0
 19 48  1  0  0  0
 20 21  2  0  0  0
 21 16  1  0  0  0
 21 24  1  0  0  0
 22 49  1  0  0  0
 22 50  1  0  0  0
 23 11  1  0  0  0
 24 51  1  0  0  0
M  END
$$$$
