VV9
  CCTOOLS-0919241028

 39 41  0  0  1  0  0  0  0  0999 V2000
   -0.5050   -1.7880   -0.6990 C   0  0  0  0  0
   -0.0840   -2.7610    0.1870 C   0  0  0  0  0
    1.2640   -2.9310    0.4390 C   0  0  0  0  0
    2.1930   -2.1260   -0.1970 C   0  0  0  0  0
    1.7710   -1.1520   -1.0840 C   0  0  0  0  0
    0.4220   -0.9830   -1.3350 C   0  0  0  0  0
    2.6470    4.0880   -1.4330 C   0  0  0  0  0
    1.1810    2.4540   -0.5180 C   0  0  0  0  0
    0.1430    3.1000   -1.1740 C   0  0  0  0  0
   -1.1470    2.6170   -1.0660 C   0  0  0  0  0
   -1.4040    1.4920   -0.3060 C   0  0  0  0  0
   -2.8130    0.9680   -0.1900 C   0  0  0  0  0
   -3.3340   -0.8750    1.3740 C   0  0  0  0  0
   -4.4340    0.1310    1.8120 C   0  0  0  0  0
   -0.3720    0.8460    0.3500 C   0  0  0  0  0
    0.9200    1.3240    0.2450 C   0  0  0  0  0
   -2.8000   -0.4790    0.0720 N   0  0  0  0  0
    2.4520    2.9240   -0.6270 O   0  0  0  0  0
   -2.3180   -0.9570   -2.3000 O   0  0  0  0  0
   -2.8460   -2.8170   -0.7160 O   0  0  0  0  0
   -2.2240   -1.5770   -1.0250 S   0  0  0  0  0
   -3.6510    1.7070    1.2660 S   0  0  0  0  0
    2.3320    0.4410    1.1410 BR  0  0  0  0  0
    3.8860   -2.3380    0.1190 CL  0  0  0  0  0
   -0.8090   -3.3890    0.6840 H   0  0  0  0  0
    1.5930   -3.6910    1.1320 H   0  0  0  0  0
    2.4950   -0.5240   -1.5810 H   0  0  0  0  0
    0.0920   -0.2230   -2.0270 H   0  0  0  0  0
    2.3220    3.8810   -2.4530 H   0  0  0  0  0
    2.0630    4.9130   -1.0260 H   0  0  0  0  0
    3.7030    4.3560   -1.4350 H   0  0  0  0  0
    0.3440    3.9790   -1.7680 H   0  0  0  0  0
   -1.9550    3.1190   -1.5770 H   0  0  0  0  0
   -3.3720    1.1850   -1.1000 H   0  0  0  0  0
   -2.5300   -0.8790    2.1100 H   0  0  0  0  0
   -3.7640   -1.8740    1.3000 H   0  0  0  0  0
   -5.3710   -0.0500    1.2850 H   0  0  0  0  0
   -4.5800    0.1130    2.8920 H   0  0  0  0  0
   -0.5760   -0.0330    0.9440 H   0  0  0  0  0
  1  2  2  0  0  0
  1  6  1  0  0  0
  2  3  1  0  0  0
  2 25  1  0  0  0
  3  4  2  0  0  0
  3 26  1  0  0  0
  4 24  1  0  0  0
  5  4  1  0  0  0
  5 27  1  0  0  0
  6  5  2  0  0  0
  6 28  1  0  0  0
  7 18  1  0  0  0
  7 29  1  0  0  0
  7 30  1  0  0  0
  7 31  1  0  0  0
  8  9  2  0  0  0
  8 16  1  0  0  0
  9 10  1  0  0  0
  9 32  1  0  0  0
 10 11  2  0  0  0
 10 33  1  0  0  0
 11 12  1  0  0  0
 12 22  1  0  0  0
 12 17  1  0  0  0
 12 34  1  0  0  0
 13 35  1  0  0  0
 13 36  1  0  0  0
 14 13  1  0  0  0
 14 37  1  0  0  0
 14 38  1  0  0  0
 15 11  1  0  0  0
 15 39  1  0  0  0
 16 15  2  0  0  0
 17 21  1  0  0  0
 17 13  1  0  0  0
 18  8  1  0  0  0
 19 21  2  0  0  0
 20 21  2  0  0  0
 21  1  1  0  0  0
 22 14  1  0  0  0
 23 16  1  0  0  0
M  END
$$$$
