WCH
  CCTOOLS-0919241030

 50 53  0  0  1  0  0  0  0  0999 V2000
   -3.4350    1.4900   -0.5100 C   0  0  0  0  0
   -5.4020    0.2520    0.3950 C   0  0  0  0  0
    5.7750    0.8020    0.0490 C   0  0  0  0  0
    8.1010    1.4010   -0.0360 C   0  0  0  0  0
    6.4380    3.0950    0.3250 C   0  0  0  0  0
   -7.7450    0.6520   -0.1410 C   0  0  0  0  0
    0.3330   -1.2700    0.1370 C   0  0  0  0  0
    0.6500   -2.6240   -0.0840 C   0  0  0  0  0
   -1.5070   -2.4860    0.1000 C   0  0  0  0  0
    2.5760   -0.7530    0.0520 C   0  0  0  0  0
    2.0040   -2.9760   -0.2380 C   0  0  0  0  0
   -1.8380   -0.0140    0.4860 C   0  0  0  0  0
   -4.0140    0.7470    0.7090 C   0  0  0  0  0
   -2.1410    0.7120   -0.8500 C   0  0  0  0  0
    7.1160    0.4370   -0.1010 C   0  0  0  0  0
    7.7640    2.7260    0.1760 C   0  0  0  0  0
    5.4430    2.1440    0.2640 C   0  0  0  0  0
   -8.6750    1.8470   -0.3600 C   0  0  0  0  0
   -1.0350   -1.2160    0.2490 N   0  0  0  0  0
   -0.5170   -3.3090   -0.0950 N   0  0  0  0  0
    1.3120   -0.3790    0.1980 N   0  0  0  0  0
    2.9200   -2.0200   -0.1680 N   0  0  0  0  0
    2.3710   -4.2920   -0.4580 N   0  0  0  0  0
    3.5580    0.1950    0.1200 N   0  0  0  0  0
   -6.3960    1.1330    0.1640 N   0  0  0  0  0
    4.7940   -0.1450   -0.0190 N   0  0  0  0  0
   -3.1480   -0.3680    0.9810 O   0  0  0  0  0
   -3.1290    2.8450   -0.1710 O   0  0  0  0  0
   -1.0820    1.6080   -1.1940 O   0  0  0  0  0
   -5.6260   -0.9390    0.3500 O   0  0  0  0  0
   -4.1330    1.4540   -1.3460 H   0  0  0  0  0
    9.1370    1.1200   -0.1520 H   0  0  0  0  0
    6.1830    4.1320    0.4910 H   0  0  0  0  0
   -8.1140    0.0520    0.6910 H   0  0  0  0  0
   -7.7180    0.0430   -1.0450 H   0  0  0  0  0
   -2.5490   -2.7670    0.1380 H   0  0  0  0  0
   -1.3310    0.6550    1.1800 H   0  0  0  0  0
   -4.0450    1.4140    1.5700 H   0  0  0  0  0
   -2.3180   -0.0060   -1.6510 H   0  0  0  0  0
    7.3810   -0.5970   -0.2660 H   0  0  0  0  0
    8.5390    3.4760    0.2260 H   0  0  0  0  0
    4.4090    2.4330    0.3800 H   0  0  0  0  0
   -9.6800    1.4890   -0.5870 H   0  0  0  0  0
   -8.7030    2.4560    0.5440 H   0  0  0  0  0
   -8.3070    2.4470   -1.1920 H   0  0  0  0  0
    1.6930   -4.9840   -0.5060 H   0  0  0  0  0
    3.3080   -4.5240   -0.5620 H   0  0  0  0  0
   -6.2170    2.0860    0.2000 H   0  0  0  0  0
   -3.8960    3.3630    0.1070 H   0  0  0  0  0
   -1.2640    2.1500   -1.9740 H   0  0  0  0  0
  1 13  1  0  0  0
  1 14  1  0  0  0
  1 28  1  0  0  0
  1 31  1  0  0  0
  2 13  1  0  0  0
  2 25  1  0  0  0
  2 30  2  0  0  0
  3 15  2  0  0  0
  3 17  1  0  0  0
  3 26  1  0  0  0
  4 15  1  0  0  0
  4 16  2  0  0  0
  4 32  1  0  0  0
  5 16  1  0  0  0
  5 17  2  0  0  0
  5 33  1  0  0  0
  6 18  1  0  0  0
  6 25  1  0  0  0
  6 34  1  0  0  0
  6 35  1  0  0  0
  7  8  2  0  0  0
  7 19  1  0  0  0
  7 21  1  0  0  0
  8 11  1  0  0  0
  8 20  1  0  0  0
  9 19  1  0  0  0
  9 20  2  0  0  0
  9 36  1  0  0  0
 10 21  2  0  0  0
 10 22  1  0  0  0
 10 24  1  0  0  0
 11 22  2  0  0  0
 11 23  1  0  0  0
 12 14  1  0  0  0
 12 19  1  0  0  0
 12 27  1  0  0  0
 12 37  1  0  0  0
 13 27  1  0  0  0
 13 38  1  0  0  0
 14 29  1  0  0  0
 14 39  1  0  0  0
 15 40  1  0  0  0
 16 41  1  0  0  0
 17 42  1  0  0  0
 18 43  1  0  0  0
 18 44  1  0  0  0
 18 45  1  0  0  0
 23 46  1  0  0  0
 23 47  1  0  0  0
 24 26  2  0  0  0
 25 48  1  0  0  0
 28 49  1  0  0  0
 29 50  1  0  0  0
M  END
$$$$
