WJS
  CCTOOLS-0919241031

 55 54  0  0  1  0  0  0  0  0999 V2000
    0.0000    0.0000    0.0000 P   0  0  0  0  0
    0.0000    0.0000    0.0000 C   0  0  0  0  0
    0.0000    0.0000    0.0000 C   0  0  0  0  0
    0.0000    0.0000    0.0000 C   0  0  0  0  0
    0.0000    0.0000    0.0000 C   0  0  0  0  0
    0.0000    0.0000    0.0000 C   0  0  0  0  0
    0.0000    0.0000    0.0000 C   0  0  0  0  0
    0.0000    0.0000    0.0000 C   0  0  0  0  0
    0.0000    0.0000    0.0000 C   0  0  0  0  0
    0.0000    0.0000    0.0000 C   0  0  0  0  0
    0.0000    0.0000    0.0000 C   0  0  0  0  0
    0.0000    0.0000    0.0000 O   0  0  0  0  0
    0.0000    0.0000    0.0000 O   0  0  0  0  0
    0.0000    0.0000    0.0000 C   0  0  0  0  0
    0.0000    0.0000    0.0000 C   0  0  0  0  0
    0.0000    0.0000    0.0000 C   0  0  0  0  0
    0.0000    0.0000    0.0000 O   0  0  0  0  0
    0.0000    0.0000    0.0000 O   0  0  0  0  0
    0.0000    0.0000    0.0000 O   0  0  0  0  0
    0.0000    0.0000    0.0000 O   0  0  0  0  0
    0.0000    0.0000    0.0000 C   0  0  0  0  0
    0.0000    0.0000    0.0000 C   0  0  0  0  0
    0.0000    0.0000    0.0000 C   0  0  0  0  0
    0.0000    0.0000    0.0000 O   0  0  0  0  0
    0.0000    0.0000    0.0000 O   0  0  0  0  0
    0.0000    0.0000    0.0000 N   0  0  0  0  0
    0.0000    0.0000    0.0000 O   0  0  0  0  0
    0.0000    0.0000    0.0000 H   0  0  0  0  0
    0.0000    0.0000    0.0000 H   0  0  0  0  0
    0.0000    0.0000    0.0000 H   0  0  0  0  0
    0.0000    0.0000    0.0000 H   0  0  0  0  0
    0.0000    0.0000    0.0000 H   0  0  0  0  0
    0.0000    0.0000    0.0000 H   0  0  0  0  0
    0.0000    0.0000    0.0000 H   0  0  0  0  0
    0.0000    0.0000    0.0000 H   0  0  0  0  0
    0.0000    0.0000    0.0000 H   0  0  0  0  0
    0.0000    0.0000    0.0000 H   0  0  0  0  0
    0.0000    0.0000    0.0000 H   0  0  0  0  0
    0.0000    0.0000    0.0000 H   0  0  0  0  0
    0.0000    0.0000    0.0000 H   0  0  0  0  0
    0.0000    0.0000    0.0000 H   0  0  0  0  0
    0.0000    0.0000    0.0000 H   0  0  0  0  0
    0.0000    0.0000    0.0000 H   0  0  0  0  0
    0.0000    0.0000    0.0000 H   0  0  0  0  0
    0.0000    0.0000    0.0000 H   0  0  0  0  0
    0.0000    0.0000    0.0000 H   0  0  0  0  0
    0.0000    0.0000    0.0000 C   0  0  0  0  0
    0.0000    0.0000    0.0000 C   0  0  0  0  0
    0.0000    0.0000    0.0000 C   0  0  0  0  0
    0.0000    0.0000    0.0000 C   0  0  0  0  0
    0.0000    0.0000    0.0000 C   0  0  0  0  0
    0.0000    0.0000    0.0000 C   0  0  0  0  0
    0.0000    0.0000    0.0000 C   0  0  0  0  0
    0.0000    0.0000    0.0000 C   0  0  0  0  0
    0.0000    0.0000    0.0000 H   0  0  0  0  0
  1 17  1  0  0  0
  1 19  1  0  0  0
  1 55  1  0  0  0
  2 28  1  0  0  0
  2 47  1  0  0  0
  3  4  1  0  0  0
  3  2  1  0  0  0
  3 29  1  0  0  0
  4 30  1  0  0  0
  5  4  1  0  0  0
  5 31  1  0  0  0
  6  5  1  0  0  0
  6 32  1  0  0  0
  7  6  1  0  0  0
  7  8  1  0  0  0
  9 10  1  0  0  0
  9  8  1  0  0  0
 11 13  1  0  0  0
 11 10  1  0  0  0
 12 11  2  0  0  0
 14 15  1  0  0  0
 14 13  1  0  0  0
 14 33  1  0  0  0
 14 34  1  0  0  0
 15 27  1  0  0  0
 15 35  1  0  0  0
 16 15  1  0  0  0
 16 36  1  0  0  0
 16 37  1  0  0  0
 17 16  1  0  0  0
 18  1  2  0  0  0
 19 38  1  0  0  0
 20 21  1  0  0  0
 20  1  1  0  0  0
 21 39  1  0  0  0
 21 40  1  0  0  0
 22 21  1  0  0  0
 22 26  1  0  0  0
 22 41  1  0  0  0
 23 25  1  0  0  0
 23 22  1  0  0  0
 24 23  2  0  0  0
 25 42  1  0  0  0
 26 43  1  0  0  0
 26 44  1  0  0  0
 26 45  1  0  0  0
 27 46  1  0  0  0
 47 48  1  0  0  0
 48 49  1  0  0  0
 49 50  1  0  0  0
 50 51  1  0  0  0
 51 52  1  0  0  0
 52 53  1  0  0  0
 53 54  1  0  0  0
M  END
$$$$
