WKE
  CCTOOLS-1004241122

 40 40  0  0  1  0  0  0  0  0999 V2000
    0.0100   -1.6950    0.6070 C   0  0  0  0  0
    2.3570   -1.2000    0.5970 C   0  0  0  0  0
    2.1170    0.1610   -0.0610 C   0  0  0  0  0
    4.3330    1.1550   -0.2550 C   0  0  0  0  0
    5.3910    2.1280    0.1990 C   0  0  0  0  0
    0.7340    0.6800    0.3470 C   0  0  0  0  0
   -0.3240   -0.3530   -0.0510 C   0  0  0  0  0
   -2.7540   -0.3330   -0.2290 C   0  0  0  0  0
   -4.1110    0.1310    0.2360 C   0  0  0  0  0
   -4.2380    1.6390    0.0120 C   0  0  0  0  0
   -1.6430    0.0980    0.4000 N   0  0  0  0  0
    4.5500    0.4160   -1.1910 O   0  0  0  0  0
    0.4710    1.9160   -0.3210 O   0  0  0  0  0
   -2.6630   -1.0950   -1.1680 O   0  0  0  0  0
   -5.1260   -0.5490   -0.5060 O   0  0  0  0  0
   -5.4760    2.0990    0.5570 O   0  0  0  0  0
    3.1450    1.1070    0.3800 N   0  0  0  0  0
   -1.0090   -2.7470    0.1660 C   0  0  0  0  0
    1.3210   -2.1040    0.2100 O   0  0  0  0  0
   -0.0240   -1.5870    1.6910 H   0  0  0  0  0
    2.3530   -1.0850    1.6810 H   0  0  0  0  0
    2.1610    0.0550   -1.1450 H   0  0  0  0  0
    6.2750    2.0220   -0.4290 H   0  0  0  0  0
    5.0080    3.1450    0.1180 H   0  0  0  0  0
    5.6550    1.9200    1.2360 H   0  0  0  0  0
    0.7050    0.8350    1.4250 H   0  0  0  0  0
   -0.3300   -0.4700   -1.1350 H   0  0  0  0  0
   -4.2270   -0.0900    1.2970 H   0  0  0  0  0
   -3.4120    2.1510    0.5040 H   0  0  0  0  0
   -4.2110    1.8510   -1.0570 H   0  0  0  0  0
   -1.7160    0.7070    1.1510 H   0  0  0  0  0
    1.1040    2.6170   -0.1150 H   0  0  0  0  0
   -5.0840   -0.3970   -1.4600 H   0  0  0  0  0
   -5.6240    3.0480    0.4510 H   0  0  0  0  0
    2.9710    1.6980    1.1290 H   0  0  0  0  0
   -0.7700   -3.7030    0.6330 H   0  0  0  0  0
   -2.0080   -2.4350    0.4680 H   0  0  0  0  0
   -0.9740   -2.8550   -0.9180 H   0  0  0  0  0
    3.6220   -1.7160    0.1770 O   0  0  0  0  0
    3.8400   -2.5790    0.5560 H   0  0  0  0  0
  1 18  1  0  0  0
  1 19  1  0  0  0
  1 20  1  0  0  0
  2 19  1  0  0  0
  2 21  1  0  0  0
  2 39  1  0  0  0
  3  2  1  0  0  0
  3 22  1  0  0  0
  4  5  1  0  0  0
  5 23  1  0  0  0
  5 24  1  0  0  0
  5 25  1  0  0  0
  6 13  1  0  0  0
  6  7  1  0  0  0
  6  3  1  0  0  0
  6 26  1  0  0  0
  7  1  1  0  0  0
  7 27  1  0  0  0
  8 14  2  0  0  0
  9  8  1  0  0  0
  9 28  1  0  0  0
 10  9  1  0  0  0
 10 29  1  0  0  0
 10 30  1  0  0  0
 11  8  1  0  0  0
 11  7  1  0  0  0
 11 31  1  0  0  0
 12  4  2  0  0  0
 13 32  1  0  0  0
 15  9  1  0  0  0
 15 33  1  0  0  0
 16 10  1  0  0  0
 16 34  1  0  0  0
 17  4  1  0  0  0
 17  3  1  0  0  0
 17 35  1  0  0  0
 18 36  1  0  0  0
 18 37  1  0  0  0
 18 38  1  0  0  0
 39 40  1  0  0  0
M  END
$$$$
