WOQ
  CCTOOLS-0919241032

 39 42  0  0  0  0  0  0  0  0999 V2000
   -3.2370    0.7850   -0.4930 N   0  0  0  0  0
   -4.6930    0.6000   -0.4280 C   0  0  0  0  0
   -2.8170    1.9540    0.2990 C   0  0  0  0  0
    1.5850   -2.8650   -0.4870 C   0  0  0  0  0
    0.9240   -1.6530   -0.5960 C   0  0  0  0  0
    1.5210   -0.5920   -1.4800 C   0  0  0  0  0
    1.8970    0.5920   -0.6310 C   0  0  0  0  0
    3.2330    0.9460   -0.5520 C   0  0  0  0  0
    3.6240    2.0220    0.2240 C   0  0  0  0  0
    2.6790    2.7470    0.9260 C   0  0  0  0  0
    1.3480    2.4050    0.8510 C   0  0  0  0  0
    0.9430    1.3150    0.0590 C   0  0  0  0  0
   -1.3750    2.2750   -0.0800 C   0  0  0  0  0
   -0.5070    1.0300    0.0100 C   0  0  0  0  0
   -1.0340   -0.1820    0.0310 C   0  0  0  0  0
   -2.5360   -0.4030   -0.0130 C   0  0  0  0  0
   -0.2470   -1.4320    0.1030 C   0  0  0  0  0
   -0.7520   -2.4500    0.9340 C   0  0  0  0  0
   -0.0860   -3.6500    1.0390 C   0  0  0  0  0
    1.0820   -3.8620    0.3290 C   0  0  0  0  0
   -5.1900    1.5130   -0.7560 H   0  0  0  0  0
   -4.9840   -0.2260   -1.0770 H   0  0  0  0  0
   -4.9850    0.3770    0.5990 H   0  0  0  0  0
   -3.4570    2.8060    0.0690 H   0  0  0  0  0
   -2.8770    1.7210    1.3620 H   0  0  0  0  0
    2.4970   -3.0320   -1.0400 H   0  0  0  0  0
    2.4100   -0.9840   -1.9730 H   0  0  0  0  0
    0.7900   -0.2870   -2.2290 H   0  0  0  0  0
    3.9730    0.3800   -1.0990 H   0  0  0  0  0
    4.6680    2.2950    0.2820 H   0  0  0  0  0
    2.9860    3.5850    1.5360 H   0  0  0  0  0
    0.6130    2.9730    1.4010 H   0  0  0  0  0
   -1.3490    2.6580   -1.1000 H   0  0  0  0  0
   -0.9860    3.0330    0.5990 H   0  0  0  0  0
   -2.8900   -0.6450    0.9890 H   0  0  0  0  0
   -2.7540   -1.2390   -0.6780 H   0  0  0  0  0
   -1.6630   -2.2880    1.4910 H   0  0  0  0  0
   -0.4770   -4.4280    1.6780 H   0  0  0  0  0
    1.6010   -4.8050    0.4110 H   0  0  0  0  0
  2  1  1  0  0  0
  2 21  1  0  0  0
  2 22  1  0  0  0
  2 23  1  0  0  0
  3  1  1  0  0  0
  3 13  1  0  0  0
  3 24  1  0  0  0
  3 25  1  0  0  0
  4 20  1  0  0  0
  4  5  2  0  0  0
  4 26  1  0  0  0
  5 17  1  0  0  0
  6  5  1  0  0  0
  6  7  1  0  0  0
  6 27  1  0  0  0
  6 28  1  0  0  0
  7  8  2  0  0  0
  7 12  1  0  0  0
  8  9  1  0  0  0
  8 29  1  0  0  0
  9 10  2  0  0  0
  9 30  1  0  0  0
 10 31  1  0  0  0
 11 10  1  0  0  0
 11 32  1  0  0  0
 12 11  2  0  0  0
 13 33  1  0  0  0
 13 34  1  0  0  0
 14 12  1  0  0  0
 14 13  1  0  0  0
 15 14  2  0  0  0
 16 15  1  0  0  0
 16  1  1  0  0  0
 16 35  1  0  0  0
 16 36  1  0  0  0
 17 18  2  0  0  0
 17 15  1  0  0  0
 18 37  1  0  0  0
 19 18  1  0  0  0
 19 38  1  0  0  0
 20 19  2  0  0  0
 20 39  1  0  0  0
M  END
$$$$
