WV8
  CCTOOLS-0919241032

 34 35  0  0  1  0  0  0  0  0999 V2000
    1.8420    0.4760    0.5500 C   0  0  0  0  0
    2.8240   -0.0600    1.6210 C   0  0  0  0  0
   -3.8210   -0.5610    1.2310 C   0  0  0  0  0
   -4.3820   -1.2450    0.1690 C   0  0  0  0  0
   -2.4450   -0.7720   -1.1580 C   0  0  0  0  0
   -1.8870   -0.0830   -0.0980 C   0  0  0  0  0
    3.6130   -0.4950   -0.4450 C   0  0  0  0  0
   -0.5260    0.5480   -0.2420 C   0  0  0  0  0
   -2.5750    0.0230    1.0970 C   0  0  0  0  0
   -1.4800    2.6780   -1.1350 C   0  0  0  0  0
   -3.6940   -1.3510   -1.0260 C   0  0  0  0  0
   -0.6380    2.0580   -0.0180 C   0  0  0  0  0
    0.4270   -0.0520    0.7930 C   0  0  0  0  0
    2.4080   -0.0840   -0.6920 N   0  0  0  0  0
    4.4160   -1.0790   -1.3950 N   0  0  0  0  0
    4.0060   -0.2970    0.8290 O   0  0  0  0  0
    1.8500    1.5660    0.5250 H   0  0  0  0  0
    3.0110    0.6890    2.3900 H   0  0  0  0  0
    2.4550   -0.9870    2.0610 H   0  0  0  0  0
   -4.3580   -0.4780    2.1640 H   0  0  0  0  0
   -5.3570   -1.6970    0.2720 H   0  0  0  0  0
   -1.9080   -0.8550   -2.0910 H   0  0  0  0  0
   -0.1420    0.3570   -1.2440 H   0  0  0  0  0
   -2.1390    0.5610    1.9250 H   0  0  0  0  0
   -1.6290    3.7390   -0.9310 H   0  0  0  0  0
   -0.9640    2.5600   -2.0870 H   0  0  0  0  0
   -2.4470    2.1780   -1.1810 H   0  0  0  0  0
   -4.1300   -1.8900   -1.8540 H   0  0  0  0  0
   -1.1130    2.2480    0.9440 H   0  0  0  0  0
    0.3580    2.5010   -0.0250 H   0  0  0  0  0
    0.4240   -1.1380    0.7030 H   0  0  0  0  0
    0.1000    0.2300    1.7940 H   0  0  0  0  0
    4.0880   -1.2000   -2.2990 H   0  0  0  0  0
    5.3110   -1.3700   -1.1610 H   0  0  0  0  0
  1  2  1  0  0  0
  1 14  1  0  0  0
  1 17  1  0  0  0
  2 16  1  0  0  0
  2 18  1  0  0  0
  2 19  1  0  0  0
  3 20  1  0  0  0
  4  3  2  0  0  0
  4 21  1  0  0  0
  5 11  2  0  0  0
  5  6  1  0  0  0
  5 22  1  0  0  0
  6  9  2  0  0  0
  7 15  1  0  0  0
  8  6  1  0  0  0
  8 13  1  0  0  0
  8 23  1  0  0  0
  9  3  1  0  0  0
  9 24  1  0  0  0
 10 12  1  0  0  0
 10 25  1  0  0  0
 10 26  1  0  0  0
 10 27  1  0  0  0
 11  4  1  0  0  0
 11 28  1  0  0  0
 12  8  1  0  0  0
 12 29  1  0  0  0
 12 30  1  0  0  0
 13  1  1  0  0  0
 13 31  1  0  0  0
 13 32  1  0  0  0
 14  7  2  0  0  0
 15 33  1  0  0  0
 15 34  1  0  0  0
 16  7  1  0  0  0
M  END
$$$$
