WYN
  CCTOOLS-0919241033

 34 35  0  0  0  0  0  0  0  0999 V2000
    1.3010    0.2660    0.9700 N   0  0  0  0  0
   -0.6020    3.6460   -0.5650 C   0  0  0  0  0
    0.4740   -0.7450    0.7990 C   0  0  0  0  0
    2.5600    0.1750    0.5260 C   0  0  0  0  0
    3.4660    1.2370    0.6940 C   0  0  0  0  0
    4.7410    1.1150    0.2330 C   0  0  0  0  0
    4.3150   -1.0970   -0.5850 C   0  0  0  0  0
   -5.7470   -0.5820    0.5480 C   0  0  0  0  0
    2.9910   -1.0090   -0.1230 C   0  0  0  0  0
    0.9040   -1.9170    0.1560 C   0  0  0  0  0
   -4.4720   -0.2270   -0.2210 C   0  0  0  0  0
   -0.5050    2.1210   -0.6400 C   0  0  0  0  0
    5.1640   -0.0490   -0.4050 C   0  0  0  0  0
    2.1340   -2.0240   -0.2860 N   0  0  0  0  0
   -3.3430   -0.3500    0.6470 O   0  0  0  0  0
   -1.6150    1.5390    0.0480 O   0  0  0  0  0
   -0.8020   -0.6540    1.2480 O   0  0  0  0  0
   -1.8340   -0.0510    0.1700 P   0  0  0  0  0
   -1.5380   -0.8490   -1.4880 S   0  0  0  0  0
    0.2440    4.0890   -1.0900 H   0  0  0  0  0
   -1.5310    3.9740   -1.0310 H   0  0  0  0  0
   -0.5880    3.9600    0.4780 H   0  0  0  0  0
    3.1520    2.1450    1.1860 H   0  0  0  0  0
    5.4340    1.9330    0.3630 H   0  0  0  0  0
    4.6570   -1.9930   -1.0820 H   0  0  0  0  0
   -5.6780   -1.6070    0.9120 H   0  0  0  0  0
   -5.8620    0.0960    1.3930 H   0  0  0  0  0
   -6.6080   -0.4890   -0.1140 H   0  0  0  0  0
    0.2140   -2.7380    0.0230 H   0  0  0  0  0
   -4.3560   -0.9050   -1.0660 H   0  0  0  0  0
   -4.5410    0.7980   -0.5840 H   0  0  0  0  0
   -0.5200    1.8060   -1.6830 H   0  0  0  0  0
    0.4240    1.7920   -0.1740 H   0  0  0  0  0
    6.1810   -0.1210   -0.7620 H   0  0  0  0  0
  2 20  1  0  0  0
  2 21  1  0  0  0
  2 22  1  0  0  0
  3  1  1  0  0  0
  3 17  1  0  0  0
  4  5  1  0  0  0
  4  1  2  0  0  0
  5 23  1  0  0  0
  6  5  2  0  0  0
  6 24  1  0  0  0
  7 13  2  0  0  0
  7  9  1  0  0  0
  7 25  1  0  0  0
  8 26  1  0  0  0
  8 27  1  0  0  0
  8 28  1  0  0  0
  9  4  1  0  0  0
 10  3  2  0  0  0
 10 29  1  0  0  0
 11 15  1  0  0  0
 11  8  1  0  0  0
 11 30  1  0  0  0
 11 31  1  0  0  0
 12  2  1  0  0  0
 12 32  1  0  0  0
 12 33  1  0  0  0
 13  6  1  0  0  0
 13 34  1  0  0  0
 14  9  2  0  0  0
 14 10  1  0  0  0
 16 12  1  0  0  0
 17 18  1  0  0  0
 18 16  1  0  0  0
 18 15  1  0  0  0
 19 18  2  0  0  0
M  END
$$$$
