WYS
  CCTOOLS-0919241033

 32 32  0  0  0  0  0  0  0  0999 V2000
   -4.7200   -0.0560    0.2640 N   0  0  0  0  0
    5.4460    1.4640   -0.3120 C   0  0  0  0  0
   -0.6860    0.5390   -0.9220 C   0  0  0  0  0
   -1.3490    1.5180   -0.1960 C   0  0  0  0  0
   -2.6610    1.3230    0.1880 C   0  0  0  0  0
   -3.3140    0.1520   -0.1490 C   0  0  0  0  0
   -1.3450   -0.6330   -1.2630 C   0  0  0  0  0
    2.2700   -3.6740    0.3700 C   0  0  0  0  0
    2.3770   -2.1910    0.7340 C   0  0  0  0  0
    4.2280    0.8020    0.3370 C   0  0  0  0  0
   -2.6550   -0.8260   -0.8720 C   0  0  0  0  0
    1.7590   -1.4040   -0.2850 O   0  0  0  0  0
    3.1320    0.8180   -0.5800 O   0  0  0  0  0
    0.6050    0.7290   -1.3000 O   0  0  0  0  0
   -5.2960   -1.0870   -0.0320 O   0  0  0  0  0
   -5.2990    0.8030    0.9050 O   0  0  0  0  0
    1.6860    0.2030   -0.2290 P   0  0  0  0  0
    1.1800    0.7430    1.4810 S   0  0  0  0  0
    5.2040    2.4940   -0.5720 H   0  0  0  0  0
    6.2810    1.4520    0.3880 H   0  0  0  0  0
    5.7190    0.9160   -1.2140 H   0  0  0  0  0
   -0.8390    2.4330    0.0680 H   0  0  0  0  0
   -3.1770    2.0850    0.7520 H   0  0  0  0  0
   -0.8330   -1.3950   -1.8320 H   0  0  0  0  0
    1.2190   -3.9510    0.2840 H   0  0  0  0  0
    2.7720   -3.8520   -0.5810 H   0  0  0  0  0
    2.7420   -4.2740    1.1480 H   0  0  0  0  0
    1.8750   -2.0140    1.6860 H   0  0  0  0  0
    3.4280   -1.9140    0.8200 H   0  0  0  0  0
    4.4700   -0.2280    0.5970 H   0  0  0  0  0
    3.9550    1.3500    1.2390 H   0  0  0  0  0
   -3.1680   -1.7400   -1.1330 H   0  0  0  0  0
  1 15  2  0  0  0
  1  6  1  0  0  0
  2 19  1  0  0  0
  2 20  1  0  0  0
  2 21  1  0  0  0
  3 14  1  0  0  0
  4  3  1  0  0  0
  4 22  1  0  0  0
  5  4  2  0  0  0
  5 23  1  0  0  0
  6 11  2  0  0  0
  6  5  1  0  0  0
  7  3  2  0  0  0
  7 24  1  0  0  0
  8 25  1  0  0  0
  8 26  1  0  0  0
  8 27  1  0  0  0
  9  8  1  0  0  0
  9 28  1  0  0  0
  9 29  1  0  0  0
 10 13  1  0  0  0
 10  2  1  0  0  0
 10 30  1  0  0  0
 10 31  1  0  0  0
 11  7  1  0  0  0
 11 32  1  0  0  0
 12  9  1  0  0  0
 14 17  1  0  0  0
 16  1  2  0  0  0
 17 18  2  0  0  0
 17 12  1  0  0  0
 17 13  1  0  0  0
M  END
$$$$
