WYW
  CCTOOLS-0919241033

 36 37  0  0  0  0  0  0  0  0999 V2000
    1.1200    0.2220    0.8680 N   0  0  0  0  0
    0.5790    2.0990   -0.0360 N   0  0  0  0  0
   -6.0600    0.4640    0.6480 C   0  0  0  0  0
    0.1400    1.0750    0.7000 C   0  0  0  0  0
    1.8370    1.9150   -0.3460 C   0  0  0  0  0
    3.5100    0.1720    0.1060 C   0  0  0  0  0
    4.5180    0.8210   -0.5950 C   0  0  0  0  0
    6.0300   -0.9590   -0.0620 C   0  0  0  0  0
   -1.7980   -3.7300   -0.4420 C   0  0  0  0  0
    5.0280   -1.6070    0.6370 C   0  0  0  0  0
    3.7690   -1.0450    0.7220 C   0  0  0  0  0
   -2.2980   -2.3180   -0.7560 C   0  0  0  0  0
   -4.7820    0.1260   -0.1210 C   0  0  0  0  0
    5.7750    0.2540   -0.6770 C   0  0  0  0  0
    2.2360    0.7480    0.1950 N   0  0  0  0  0
   -1.8010   -1.4080    0.2270 O   0  0  0  0  0
   -3.6450    0.4070    0.6980 O   0  0  0  0  0
   -1.1190    0.9400    1.1940 O   0  0  0  0  0
   -2.1300    0.1690    0.2070 P   0  0  0  0  0
   -1.9280    0.8240   -1.5260 S   0  0  0  0  0
   -6.9270    0.2500    0.0230 H   0  0  0  0  0
   -6.1090   -0.1380    1.5550 H   0  0  0  0  0
   -6.0560    1.5210    0.9130 H   0  0  0  0  0
    2.4500    2.5820   -0.9340 H   0  0  0  0  0
    4.3200    1.7670   -1.0760 H   0  0  0  0  0
    7.0130   -1.4000   -0.1270 H   0  0  0  0  0
   -2.1770   -4.4250   -1.1910 H   0  0  0  0  0
   -0.7080   -3.7410   -0.4540 H   0  0  0  0  0
   -2.1530   -4.0300    0.5440 H   0  0  0  0  0
    5.2300   -2.5530    1.1160 H   0  0  0  0  0
    2.9870   -1.5510    1.2680 H   0  0  0  0  0
   -1.9430   -2.0180   -1.7420 H   0  0  0  0  0
   -3.3880   -2.3070   -0.7440 H   0  0  0  0  0
   -4.7860   -0.9320   -0.3860 H   0  0  0  0  0
   -4.7330    0.7280   -1.0290 H   0  0  0  0  0
    6.5600    0.7570   -1.2220 H   0  0  0  0  0
  2  4  1  0  0  0
  3 21  1  0  0  0
  3 22  1  0  0  0
  3 23  1  0  0  0
  4  1  2  0  0  0
  4 18  1  0  0  0
  5  2  2  0  0  0
  5 15  1  0  0  0
  5 24  1  0  0  0
  6 11  2  0  0  0
  7 14  2  0  0  0
  7  6  1  0  0  0
  7 25  1  0  0  0
  8 10  2  0  0  0
  8 26  1  0  0  0
  9 27  1  0  0  0
  9 28  1  0  0  0
  9 29  1  0  0  0
 10 30  1  0  0  0
 11 10  1  0  0  0
 11 31  1  0  0  0
 12  9  1  0  0  0
 12 32  1  0  0  0
 12 33  1  0  0  0
 13 17  1  0  0  0
 13  3  1  0  0  0
 13 34  1  0  0  0
 13 35  1  0  0  0
 14  8  1  0  0  0
 14 36  1  0  0  0
 15  6  1  0  0  0
 15  1  1  0  0  0
 16 12  1  0  0  0
 18 19  1  0  0  0
 19 17  1  0  0  0
 19 16  1  0  0  0
 20 19  2  0  0  0
M  END
$$$$
