WZ0
  CCTOOLS-0919241033

 38 39  0  0  0  0  0  0  0  0999 V2000
   -1.6760    3.5310   -1.0100 C   0  0  0  0  0
   -0.6990   -0.6380    0.9810 C   0  0  0  0  0
    0.1660    0.4410    1.0640 C   0  0  0  0  0
    1.4930    0.2900    0.6920 C   0  0  0  0  0
    1.9450   -0.9610    0.2330 C   0  0  0  0  0
   -0.2440   -1.8760    0.5320 C   0  0  0  0  0
    3.6400    1.2010    0.4090 C   0  0  0  0  0
   -6.8980   -0.5170    0.3790 C   0  0  0  0  0
    3.3480   -1.1090   -0.1570 C   0  0  0  0  0
    4.1600   -0.0240   -0.0600 C   0  0  0  0  0
    3.8780   -2.4300   -0.6540 C   0  0  0  0  0
   -5.5820   -0.2660   -0.3610 C   0  0  0  0  0
   -1.5850    2.0100   -0.8760 C   0  0  0  0  0
    1.0580   -2.0400    0.1560 C   0  0  0  0  0
   -4.5020   -0.2710    0.5740 O   0  0  0  0  0
   -2.7330    1.5230   -0.1770 O   0  0  0  0  0
   -1.9980   -0.4890    1.3460 O   0  0  0  0  0
    4.3780    2.1670    0.4930 O   0  0  0  0  0
    2.3520    1.3300    0.7660 O   0  0  0  0  0
   -2.9680   -0.0370    0.1440 P   0  0  0  0  0
   -2.5880   -1.0470   -1.3750 S   0  0  0  0  0
    5.8320   -0.1440   -0.5100 CL  0  0  0  0  0
   -2.5770    3.7940   -1.5640 H   0  0  0  0  0
   -1.7160    3.9820   -0.0180 H   0  0  0  0  0
   -0.8010    3.9020   -1.5430 H   0  0  0  0  0
   -0.1930    1.3960    1.4180 H   0  0  0  0  0
   -0.9280   -2.7110    0.4760 H   0  0  0  0  0
   -6.8540   -1.4850    0.8790 H   0  0  0  0  0
   -7.0540    0.2680    1.1180 H   0  0  0  0  0
   -7.7220   -0.5140   -0.3350 H   0  0  0  0  0
    3.7660   -2.4820   -1.7370 H   0  0  0  0  0
    4.9330   -2.5200   -0.3930 H   0  0  0  0  0
    3.3190   -3.2430   -0.1910 H   0  0  0  0  0
   -5.4250   -1.0510   -1.1010 H   0  0  0  0  0
   -5.6250    0.7020   -0.8610 H   0  0  0  0  0
   -1.5450    1.5590   -1.8670 H   0  0  0  0  0
   -0.6840    1.7480   -0.3210 H   0  0  0  0  0
    1.4040   -3.0020   -0.1920 H   0  0  0  0  0
  1 23  1  0  0  0
  1 24  1  0  0  0
  1 25  1  0  0  0
  2 17  1  0  0  0
  2  3  2  0  0  0
  3 26  1  0  0  0
  4  3  1  0  0  0
  4 19  1  0  0  0
  5  4  2  0  0  0
  6  2  1  0  0  0
  6 27  1  0  0  0
  7 19  1  0  0  0
  7 18  2  0  0  0
  8 28  1  0  0  0
  8 29  1  0  0  0
  8 30  1  0  0  0
  9  5  1  0  0  0
  9 10  2  0  0  0
 10  7  1  0  0  0
 11  9  1  0  0  0
 11 31  1  0  0  0
 11 32  1  0  0  0
 11 33  1  0  0  0
 12 15  1  0  0  0
 12  8  1  0  0  0
 12 34  1  0  0  0
 12 35  1  0  0  0
 13  1  1  0  0  0
 13 36  1  0  0  0
 13 37  1  0  0  0
 14  6  2  0  0  0
 14  5  1  0  0  0
 14 38  1  0  0  0
 16 13  1  0  0  0
 17 20  1  0  0  0
 20 15  1  0  0  0
 20 16  1  0  0  0
 21 20  2  0  0  0
 22 10  1  0  0  0
M  END
$$$$
