X49
  CCTOOLS-1011241542

 47 49  0  0  1  0  0  0  0  0999 V2000
    2.3180   -0.6460    0.7990 C   0  0  0  0  0
    3.4460   -0.6000   -0.2330 C   0  0  0  0  0
    4.6810    0.0530    0.3900 C   0  0  0  0  0
    5.8100    0.0990   -0.6430 C   0  0  0  0  0
   -3.9890    5.5630   -0.6500 C   0  0  0  0  0
   -4.7190    3.4210    0.1400 C   0  0  0  0  0
   -4.3280    1.9660    0.1810 C   0  0  0  0  0
   -2.1340   -0.9020   -0.5380 C   0  0  0  0  0
   -0.8530   -0.6700   -1.2960 C   0  0  0  0  0
    1.0950   -1.4110    0.2480 C   0  0  0  0  0
    7.0450    0.7520   -0.0200 C   0  0  0  0  0
    1.7280    0.7630    1.0370 C   0  0  0  0  0
    0.5600    0.8420    0.0790 C   0  0  0  0  0
   -2.5850   -2.0830   -0.0780 C   0  0  0  0  0
   -4.0480   -0.5990    0.4830 C   0  0  0  0  0
   -1.8920   -3.4120   -0.2340 C   0  0  0  0  0
    7.4580    0.0070    1.0890 F   0  0  0  0  0
    8.0760    0.7940   -0.9640 F   0  0  0  0  0
    6.7300    2.0540    0.3840 F   0  0  0  0  0
   -1.1450   -3.4130   -1.4180 F   0  0  0  0  0
   -1.0400   -3.6240    0.8550 F   0  0  0  0  0
   -2.8470   -4.4330   -0.2850 F   0  0  0  0  0
   -3.2660    1.4330   -0.3170 N   0  0  0  0  0
   -3.0650    0.0650   -0.1840 N   0  0  0  0  0
    0.2300   -0.3880   -0.3510 N   0  0  0  0  0
   -3.7540   -1.8760    0.5420 N   0  0  0  0  0
   -3.7140    4.1640   -0.5540 O   0  0  0  0  0
    0.0020    1.8670   -0.2530 O   0  0  0  0  0
   -5.2320    0.6380    0.9310 S   0  0  0  0  0
    2.6650   -1.0860    1.7340 H   0  0  0  0  0
    3.6920   -1.6150   -0.5480 H   0  0  0  0  0
    3.1240   -0.0190   -1.0970 H   0  0  0  0  0
    4.4360    1.0670    0.7050 H   0  0  0  0  0
    5.0030   -0.5280    1.2540 H   0  0  0  0  0
    6.0550   -0.9150   -0.9580 H   0  0  0  0  0
    5.4880    0.6800   -1.5070 H   0  0  0  0  0
   -4.9270    5.7130   -1.1850 H   0  0  0  0  0
   -4.0700    5.9870    0.3510 H   0  0  0  0  0
   -3.1800    6.0560   -1.1890 H   0  0  0  0  0
   -5.6720    3.5260   -0.3790 H   0  0  0  0  0
   -4.8140    3.8000    1.1570 H   0  0  0  0  0
   -0.6070   -1.5610   -1.8750 H   0  0  0  0  0
   -0.9780    0.1770   -1.9700 H   0  0  0  0  0
    1.4090   -2.1300   -0.5090 H   0  0  0  0  0
    0.5710   -1.9200    1.0580 H   0  0  0  0  0
    1.3840    0.8640    2.0660 H   0  0  0  0  0
    2.4660    1.5300    0.8030 H   0  0  0  0  0
  1 10  1  0  0  0
  1 12  1  0  0  0
  1 30  1  0  0  0
  2  1  1  0  0  0
  2 31  1  0  0  0
  2 32  1  0  0  0
  3  2  1  0  0  0
  3 33  1  0  0  0
  3 34  1  0  0  0
  4  3  1  0  0  0
  4 35  1  0  0  0
  4 36  1  0  0  0
  5 37  1  0  0  0
  5 38  1  0  0  0
  5 39  1  0  0  0
  6 27  1  0  0  0
  6 40  1  0  0  0
  6 41  1  0  0  0
  7  6  1  0  0  0
  7 23  2  0  0  0
  8  9  1  0  0  0
  9 42  1  0  0  0
  9 43  1  0  0  0
 10 25  1  0  0  0
 10 44  1  0  0  0
 10 45  1  0  0  0
 11 17  1  0  0  0
 11  4  1  0  0  0
 12 13  1  0  0  0
 12 46  1  0  0  0
 12 47  1  0  0  0
 13 28  2  0  0  0
 14 16  1  0  0  0
 14  8  2  0  0  0
 15 24  1  0  0  0
 16 21  1  0  0  0
 16 22  1  0  0  0
 18 11  1  0  0  0
 19 11  1  0  0  0
 20 16  1  0  0  0
 24 23  1  0  0  0
 24  8  1  0  0  0
 25 13  1  0  0  0
 25  9  1  0  0  0
 26 15  2  0  0  0
 26 14  1  0  0  0
 27  5  1  0  0  0
 29 15  1  0  0  0
 29  7  1  0  0  0
M  END
$$$$
