XNO
  CCTOOLS-0919241036

 42 43  0  0  0  0  0  0  0  0999 V2000
   -2.9370    1.9710    0.0320 N   0  0  0  0  0
   -2.0730    0.9870    0.0040 C   0  0  0  0  0
   -2.4840   -0.4310   -0.0320 C   0  0  0  0  0
   -2.0250   -2.7800    0.4280 N   0  0  0  0  0
   -3.7640   -0.7100   -0.1570 C   0  0  0  0  0
    6.5060    0.0200   -0.0420 C   0  0  0  0  0
    1.6210    1.0700   -0.0030 C   0  0  0  0  0
   -0.7360    1.3800    0.0110 C   0  0  0  0  0
    2.6570   -0.0560   -0.0340 C   0  0  0  0  0
    4.0640    0.5450   -0.0230 C   0  0  0  0  0
    5.0990   -0.5810   -0.0540 C   0  0  0  0  0
   -0.5960    2.6820    0.0440 N   0  0  0  0  0
    7.5420   -1.1060   -0.0740 C   0  0  0  0  0
    0.3070    0.5090   -0.0140 O   0  0  0  0  0
   -4.2870   -2.1190   -0.1970 C   0  0  0  0  0
   -3.1380   -3.0890   -0.4850 C   0  0  0  0  0
   -1.4220   -1.4880    0.0700 C   0  0  0  0  0
   -1.0200   -3.8510    0.4130 C   0  0  0  0  0
   -2.1620    3.3260    0.0640 S   0  0  0  0  0
   -4.4670    0.1060   -0.2340 H   0  0  0  0  0
    6.6370    0.6580   -0.9160 H   0  0  0  0  0
    6.6410    0.6120    0.8630 H   0  0  0  0  0
    1.7560    1.6630    0.9020 H   0  0  0  0  0
    1.7520    1.7080   -0.8770 H   0  0  0  0  0
    2.5270   -0.6930    0.8400 H   0  0  0  0  0
    2.5220   -0.6480   -0.9400 H   0  0  0  0  0
    4.1940    1.1830   -0.8970 H   0  0  0  0  0
    4.1990    1.1370    0.8830 H   0  0  0  0  0
    4.9650   -1.1730   -0.9590 H   0  0  0  0  0
    4.9690   -1.2190    0.8200 H   0  0  0  0  0
    7.4070   -1.6980   -0.9790 H   0  0  0  0  0
    8.5440   -0.6780   -0.0650 H   0  0  0  0  0
    7.4120   -1.7440    0.8000 H   0  0  0  0  0
   -4.7370   -2.3660    0.7650 H   0  0  0  0  0
   -5.0390   -2.2040   -0.9810 H   0  0  0  0  0
   -2.8080   -2.9720   -1.5170 H   0  0  0  0  0
   -3.4750   -4.1120   -0.3190 H   0  0  0  0  0
   -0.9090   -1.5770   -0.8870 H   0  0  0  0  0
   -0.7020   -1.2030    0.8380 H   0  0  0  0  0
   -0.5730   -3.9160   -0.5790 H   0  0  0  0  0
   -0.2440   -3.6320    1.1470 H   0  0  0  0  0
   -1.4960   -4.8000    0.6600 H   0  0  0  0  0
  1  2  2  0  0  0
  1 19  1  0  0  0
  2  3  1  0  0  0
  2  8  1  0  0  0
  3  5  2  0  0  0
  3 17  1  0  0  0
  4 16  1  0  0  0
  4 17  1  0  0  0
  4 18  1  0  0  0
  5 15  1  0  0  0
  5 20  1  0  0  0
  6 11  1  0  0  0
  6 13  1  0  0  0
  6 21  1  0  0  0
  6 22  1  0  0  0
  7  9  1  0  0  0
  7 14  1  0  0  0
  7 23  1  0  0  0
  7 24  1  0  0  0
  8 12  2  0  0  0
  8 14  1  0  0  0
  9 10  1  0  0  0
  9 25  1  0  0  0
  9 26  1  0  0  0
 10 11  1  0  0  0
 10 27  1  0  0  0
 10 28  1  0  0  0
 11 29  1  0  0  0
 11 30  1  0  0  0
 12 19  1  0  0  0
 13 31  1  0  0  0
 13 32  1  0  0  0
 13 33  1  0  0  0
 15 16  1  0  0  0
 15 34  1  0  0  0
 15 35  1  0  0  0
 16 36  1  0  0  0
 16 37  1  0  0  0
 17 38  1  0  0  0
 17 39  1  0  0  0
 18 40  1  0  0  0
 18 41  1  0  0  0
 18 42  1  0  0  0
M  END
$$$$
