XOO
  CCTOOLS-1004241124

 69 74  0  0  0  0  0  0  0  0999 V2000
    5.4900    3.5750    1.7880 N   0  0  0  0  0
    3.6540    5.8630   -0.2420 C   0  0  0  0  0
    3.0690    5.0530   -1.1970 C   0  0  0  0  0
   -6.5110   -0.6510    0.0250 C   0  0  0  0  0
   -7.1390   -1.0840   -1.1310 C   0  0  0  0  0
    3.2930    3.6870   -1.1640 C   0  0  0  0  0
    4.1130    3.1730   -0.1540 C   0  0  0  0  0
    4.3860    1.7250   -0.0720 C   0  0  0  0  0
    4.6710    4.0610    0.7810 C   0  0  0  0  0
    4.5520   -2.7310    0.1080 C   0  0  0  0  0
    4.0930   -0.4720   -0.0220 C   0  0  0  0  0
    2.0550    0.9210   -0.2880 C   0  0  0  0  0
    1.4210    0.5060   -1.4520 C   0  0  0  0  0
    0.0590    0.6830   -1.5960 C   0  0  0  0  0
   -0.6740    1.2750   -0.5840 C   0  0  0  0  0
   -0.0460    1.6900    0.5760 C   0  0  0  0  0
    1.3160    1.5150    0.7270 C   0  0  0  0  0
   -2.1590    1.4680   -0.7450 C   0  0  0  0  0
   -4.3190    0.4400   -0.3730 C   0  0  0  0  0
   -5.0190   -0.8080    0.1700 C   0  0  0  0  0
   -8.5010   -0.9410   -1.2790 C   0  0  0  0  0
   -9.2550   -0.3550   -0.2550 C   0  0  0  0  0
  -10.7070   -0.1990   -0.4040 C   0  0  0  0  0
   -8.6130    0.0820    0.9150 C   0  0  0  0  0
   -7.2410   -0.0710    1.0440 C   0  0  0  0  0
    4.0530   -4.1270    0.1070 C   0  0  0  0  0
    2.6900   -4.3830   -0.0270 C   0  0  0  0  0
    2.2310   -5.6850   -0.0280 C   0  0  0  0  0
    3.1220   -6.7340    0.1030 C   0  0  0  0  0
    4.4770   -6.4870    0.2360 C   0  0  0  0  0
    4.9470   -5.1890    0.2330 C   0  0  0  0  0
    5.4600   -0.1610    0.1140 C   0  0  0  0  0
    6.3850   -1.2030    0.2510 C   0  0  0  0  0
    5.9210   -2.4910    0.2470 C   0  0  0  0  0
    4.4280    5.3590    0.7010 N   0  0  0  0  0
    5.5730    1.1880    0.0790 N   0  0  0  0  0
    3.6900   -1.7310   -0.0190 N   0  0  0  0  0
    3.4350    0.7370   -0.1360 N   0  0  0  0  0
   -2.8650    0.2870   -0.2320 N   0  0  0  0  0
   -9.3320    0.6520    1.9140 O   0  0  0  0  0
    5.9560    4.1910    2.3740 H   0  0  0  0  0
    5.5940    2.6180    1.9090 H   0  0  0  0  0
    3.4780    6.9280   -0.2690 H   0  0  0  0  0
    2.4410    5.4830   -1.9640 H   0  0  0  0  0
   -6.5580   -1.5360   -1.9210 H   0  0  0  0  0
    2.8470    3.0350   -1.8990 H   0  0  0  0  0
    1.9930    0.0440   -2.2430 H   0  0  0  0  0
   -0.4340    0.3600   -2.5010 H   0  0  0  0  0
   -0.6210    2.1520    1.3650 H   0  0  0  0  0
    1.8060    1.8390    1.6330 H   0  0  0  0  0
   -2.4740    2.3500   -0.1870 H   0  0  0  0  0
   -2.3960    1.6030   -1.8010 H   0  0  0  0  0
   -4.5710    0.5670   -1.4260 H   0  0  0  0  0
   -4.6490    1.3140    0.1870 H   0  0  0  0  0
   -4.7680   -0.9350    1.2230 H   0  0  0  0  0
   -4.6890   -1.6830   -0.3900 H   0  0  0  0  0
   -8.9860   -1.2790   -2.1820 H   0  0  0  0  0
  -11.1970   -0.5360   -1.3060 H   0  0  0  0  0
   -6.7430    0.2640    1.9420 H   0  0  0  0  0
    1.9930   -3.5640   -0.1290 H   0  0  0  0  0
    1.1750   -5.8840   -0.1310 H   0  0  0  0  0
    2.7590   -7.7520    0.1020 H   0  0  0  0  0
    5.1680   -7.3100    0.3390 H   0  0  0  0  0
    6.0050   -4.9970    0.3330 H   0  0  0  0  0
    7.4400   -0.9960    0.3570 H   0  0  0  0  0
    6.6090   -3.3170    0.3510 H   0  0  0  0  0
   -2.5440   -0.5530   -0.6890 H   0  0  0  0  0
   -9.6640    0.0220    2.5690 H   0  0  0  0  0
  -11.3570    0.3100    0.4850 O   0  0  0  0  0
  1  9  1  0  0  0
  1 41  1  0  0  0
  1 42  1  0  0  0
  2  3  2  0  0  0
  2 43  1  0  0  0
  3  6  1  0  0  0
  3 44  1  0  0  0
  4  5  2  0  0  0
  4 25  1  0  0  0
  5 21  1  0  0  0
  5 45  1  0  0  0
  6  7  2  0  0  0
  6 46  1  0  0  0
  7  8  1  0  0  0
  8 36  2  0  0  0
  8 38  1  0  0  0
  9 35  2  0  0  0
  9  7  1  0  0  0
 10 37  1  0  0  0
 10 26  1  0  0  0
 11 38  1  0  0  0
 12 13  2  0  0  0
 12 17  1  0  0  0
 13 14  1  0  0  0
 13 47  1  0  0  0
 14 15  2  0  0  0
 14 48  1  0  0  0
 15 16  1  0  0  0
 15 18  1  0  0  0
 16 17  2  0  0  0
 16 49  1  0  0  0
 17 50  1  0  0  0
 18 39  1  0  0  0
 18 51  1  0  0  0
 18 52  1  0  0  0
 19 20  1  0  0  0
 19 53  1  0  0  0
 19 54  1  0  0  0
 20  4  1  0  0  0
 20 55  1  0  0  0
 20 56  1  0  0  0
 21 22  2  0  0  0
 21 57  1  0  0  0
 22 23  1  0  0  0
 22 24  1  0  0  0
 23 58  1  0  0  0
 23 69  2  0  0  0
 24 40  1  0  0  0
 24 25  2  0  0  0
 25 59  1  0  0  0
 26 27  2  0  0  0
 26 31  1  0  0  0
 27 28  1  0  0  0
 27 60  1  0  0  0
 28 29  2  0  0  0
 28 61  1  0  0  0
 29 30  1  0  0  0
 29 62  1  0  0  0
 30 31  2  0  0  0
 30 63  1  0  0  0
 31 64  1  0  0  0
 32 33  2  0  0  0
 32 11  1  0  0  0
 33 34  1  0  0  0
 33 65  1  0  0  0
 34 10  2  0  0  0
 34 66  1  0  0  0
 35  2  1  0  0  0
 36 32  1  0  0  0
 37 11  2  0  0  0
 38 12  1  0  0  0
 39 19  1  0  0  0
 39 67  1  0  0  0
 40 68  1  0  0  0
M  END
$$$$
