XQ2
  CCTOOLS-1004241124

 68 73  0  0  0  0  0  0  0  0999 V2000
    1.7730    1.1840    0.3470 C   0  0  0  0  0
    0.3820    0.6170    0.2270 C   0  0  0  0  0
   -0.3800    0.8900   -0.8940 C   0  0  0  0  0
   -1.6560    0.3730   -1.0070 C   0  0  0  0  0
   10.3450    1.7500   -0.4110 C   0  0  0  0  0
   -2.1730   -0.4230    0.0070 C   0  0  0  0  0
   -3.7980   -2.2740   -0.2370 C   0  0  0  0  0
   -2.8330   -3.3890   -0.2930 C   0  0  0  0  0
   -1.7170   -3.3240   -1.1330 C   0  0  0  0  0
   -0.8410   -4.3960   -1.1480 C   0  0  0  0  0
   -1.0910   -5.4900   -0.3410 C   0  0  0  0  0
    8.9900    1.1960   -0.5210 C   0  0  0  0  0
   -3.0150   -4.5330    0.5020 C   0  0  0  0  0
   -5.6800   -1.1780   -0.2290 C   0  0  0  0  0
   -7.0090   -0.7370   -0.2560 C   0  0  0  0  0
   -7.2520    0.6070   -0.1540 C   0  0  0  0  0
   -6.1800    1.4940   -0.0270 C   0  0  0  0  0
   -6.4470    2.9480    0.0830 C   0  0  0  0  0
   -5.3890    3.8460    0.2100 C   0  0  0  0  0
   -5.6430    5.1990    0.3110 C   0  0  0  0  0
   -6.9460    5.6640    0.2870 C   0  0  0  0  0
   -8.0000    4.7770    0.1610 C   0  0  0  0  0
    8.2450    1.3820   -1.6920 C   0  0  0  0  0
   -7.7580    3.4230    0.0540 C   0  0  0  0  0
   -4.6460   -0.2300   -0.1000 C   0  0  0  0  0
   -1.4050   -0.6960    1.1310 C   0  0  0  0  0
   -0.1280   -0.1800    1.2360 C   0  0  0  0  0
    6.9750    0.8600   -1.7890 C   0  0  0  0  0
    6.4280    0.1490   -0.7320 C   0  0  0  0  0
    7.1500   -0.0440    0.4310 C   0  0  0  0  0
    8.4340    0.4710    0.5450 C   0  0  0  0  0
    5.0370   -0.4180   -0.8520 C   0  0  0  0  0
    4.0480    0.5460   -0.2470 C   0  0  0  0  0
    6.6070   -0.7380    1.4550 F   0  0  0  0  0
    2.7340    0.2470   -0.2410 N   0  0  0  0  0
   -3.4670   -0.9490   -0.1040 N   0  0  0  0  0
   -2.1500   -5.5320    0.4450 N   0  0  0  0  0
   -4.1110   -4.6180    1.3460 N   0  0  0  0  0
   -5.1020   -2.3990   -0.3140 N   0  0  0  0  0
   -4.9280    1.0580   -0.0040 N   0  0  0  0  0
    9.1470    0.2790    1.6840 O   0  0  0  0  0
    4.4350    1.5890    0.2340 O   0  0  0  0  0
    1.8240    2.1360   -0.1810 H   0  0  0  0  0
    2.0130    1.3380    1.3990 H   0  0  0  0  0
    0.0220    1.5090   -1.6820 H   0  0  0  0  0
   -2.2510    0.5870   -1.8820 H   0  0  0  0  0
   10.7700    2.3040   -1.2350 H   0  0  0  0  0
   -1.5430   -2.4580   -1.7550 H   0  0  0  0  0
    0.0310   -4.3780   -1.7860 H   0  0  0  0  0
   -0.4070   -6.3260   -0.3540 H   0  0  0  0  0
   -7.8240   -1.4400   -0.3540 H   0  0  0  0  0
   -8.2650    0.9790   -0.1710 H   0  0  0  0  0
   -4.3710    3.4840    0.2290 H   0  0  0  0  0
   -4.8240    5.8960    0.4100 H   0  0  0  0  0
   -7.1410    6.7230    0.3680 H   0  0  0  0  0
   -9.0160    5.1460    0.1440 H   0  0  0  0  0
    8.6670    1.9360   -2.5180 H   0  0  0  0  0
   -8.5820    2.7320   -0.0450 H   0  0  0  0  0
   -1.8050   -1.3140    1.9210 H   0  0  0  0  0
    0.4710   -0.3950    2.1080 H   0  0  0  0  0
    6.4020    1.0050   -2.6930 H   0  0  0  0  0
    4.7970   -0.5720   -1.9040 H   0  0  0  0  0
    4.9850   -1.3700   -0.3240 H   0  0  0  0  0
    2.4240   -0.5880   -0.6260 H   0  0  0  0  0
   -4.7830   -3.9180    1.3400 H   0  0  0  0  0
   -4.2060   -5.3770    1.9420 H   0  0  0  0  0
    9.0210    0.9700    2.3480 H   0  0  0  0  0
   10.9860    1.5870    0.6060 O   0  0  0  0  0
  1  2  1  0  0  0
  1 43  1  0  0  0
  1 44  1  0  0  0
  2 27  1  0  0  0
  3  2  2  0  0  0
  3  4  1  0  0  0
  3 45  1  0  0  0
  4  6  2  0  0  0
  4 46  1  0  0  0
  5 12  1  0  0  0
  5 47  1  0  0  0
  5 68  2  0  0  0
  6 26  1  0  0  0
  6 36  1  0  0  0
  7 39  2  0  0  0
  8  7  1  0  0  0
  9  8  2  0  0  0
  9 48  1  0  0  0
 10  9  1  0  0  0
 10 49  1  0  0  0
 11 10  2  0  0  0
 11 37  1  0  0  0
 11 50  1  0  0  0
 12 23  1  0  0  0
 13  8  1  0  0  0
 13 38  1  0  0  0
 14 15  2  0  0  0
 15 16  1  0  0  0
 15 51  1  0  0  0
 16 52  1  0  0  0
 17 18  1  0  0  0
 17 16  2  0  0  0
 18 19  2  0  0  0
 19 20  1  0  0  0
 19 53  1  0  0  0
 20 54  1  0  0  0
 21 20  2  0  0  0
 21 55  1  0  0  0
 22 21  1  0  0  0
 22 56  1  0  0  0
 23 28  2  0  0  0
 23 57  1  0  0  0
 24 22  2  0  0  0
 24 18  1  0  0  0
 24 58  1  0  0  0
 25 40  2  0  0  0
 25 14  1  0  0  0
 26 59  1  0  0  0
 27 26  2  0  0  0
 27 60  1  0  0  0
 28 61  1  0  0  0
 29 28  1  0  0  0
 29 32  1  0  0  0
 30 29  2  0  0  0
 31 12  2  0  0  0
 31 30  1  0  0  0
 32 62  1  0  0  0
 32 63  1  0  0  0
 33 32  1  0  0  0
 33 35  1  0  0  0
 34 30  1  0  0  0
 35  1  1  0  0  0
 35 64  1  0  0  0
 36  7  1  0  0  0
 36 25  1  0  0  0
 37 13  2  0  0  0
 38 65  1  0  0  0
 38 66  1  0  0  0
 39 14  1  0  0  0
 40 17  1  0  0  0
 41 31  1  0  0  0
 41 67  1  0  0  0
 42 33  2  0  0  0
M  END
$$$$
