XS0
  CCTOOLS-0919241036

 48 51  0  0  1  0  0  0  0  0999 V2000
   -1.2560   -0.6980    0.9100 N   0  0  0  0  0
   -1.0280    0.6010    0.5990 C   0  0  0  0  0
    2.5460    1.7710    0.7750 C   0  0  0  0  0
    3.7720    0.9790    1.1510 C   0  0  0  0  0
    5.6150   -0.4140    0.5210 C   0  0  0  0  0
    5.3050    0.1970    2.8160 C   0  0  0  0  0
   -1.3410    4.8540   -0.5660 CL  0  0  0  0  0
   -9.0820   -3.7890    0.4030 C   0  0  0  0  0
   -8.4690   -2.4960    0.0900 N   0  0  0  0  0
   -7.2600   -2.1830    0.5950 C   0  0  0  0  0
   -6.6790   -2.9720    1.3100 O   0  0  0  0  0
   -6.6290   -0.8520    0.2730 C   0  0  0  0  0
   -6.3130   -0.7580   -1.2360 C   0  0  0  0  0
   -4.9740    0.0090   -1.2920 C   0  0  0  0  0
   -4.6390    0.2880    0.1900 C   0  0  0  0  0
   -5.3470   -0.7320    0.9270 O   0  0  0  0  0
   -3.1960    0.1720    0.4170 N   0  0  0  0  0
   -2.5280   -0.9510    0.8040 C   0  0  0  0  0
    0.1160    1.4160    0.5390 C   0  0  0  0  0
   -0.0310    2.6880    0.1830 N   0  0  0  0  0
   -1.2210    3.1840   -0.1090 C   0  0  0  0  0
   -2.3190    2.4570   -0.0660 N   0  0  0  0  0
   -2.2690    1.1740    0.2790 C   0  0  0  0  0
    1.3660    0.9060    0.8430 N   0  0  0  0  0
    4.4900    0.3120    0.1760 C   0  0  0  0  0
    6.0210   -0.4740    1.8420 C   0  0  0  0  0
    4.1810    0.9240    2.4710 C   0  0  0  0  0
   -5.1290    1.2350   -2.0100 O   0  0  0  0  0
   -7.3370   -0.0300   -1.9170 O   0  0  0  0  0
    6.7030   -1.4250   -0.9560 I   0  0  0  0  0
    2.4260    2.6050    1.4670 H   0  0  0  0  0
    2.6580    2.1540   -0.2390 H   0  0  0  0  0
    5.6250    0.1540    3.8470 H   0  0  0  0  0
   -9.2170   -3.8750    1.4810 H   0  0  0  0  0
  -10.0510   -3.8610   -0.0920 H   0  0  0  0  0
   -8.4340   -4.5920    0.0520 H   0  0  0  0  0
   -8.9340   -1.8640   -0.4820 H   0  0  0  0  0
   -7.2880   -0.0380    0.5750 H   0  0  0  0  0
   -6.2040   -1.7540   -1.6660 H   0  0  0  0  0
   -4.2000   -0.6060   -1.7520 H   0  0  0  0  0
   -4.9910    1.2780    0.4790 H   0  0  0  0  0
   -2.9860   -1.9110    0.9940 H   0  0  0  0  0
    1.4600   -0.0240    1.1020 H   0  0  0  0  0
    4.1720    0.3590   -0.8550 H   0  0  0  0  0
    6.8990   -1.0410    2.1120 H   0  0  0  0  0
    3.6220    1.4480    3.2320 H   0  0  0  0  0
   -5.3980    1.1200   -2.9310 H   0  0  0  0  0
   -8.2120   -0.4370   -1.8620 H   0  0  0  0  0
  1 18  2  0  0  0
  2  1  1  0  0  0
  2 23  2  0  0  0
  3 24  1  0  0  0
  3 31  1  0  0  0
  3 32  1  0  0  0
  4  3  1  0  0  0
  5 25  2  0  0  0
  6 27  1  0  0  0
  6 33  1  0  0  0
  7 21  1  0  0  0
  8 34  1  0  0  0
  8 35  1  0  0  0
  8 36  1  0  0  0
  9  8  1  0  0  0
  9 37  1  0  0  0
 10  9  1  0  0  0
 11 10  2  0  0  0
 12 10  1  0  0  0
 12 13  1  0  0  0
 12 38  1  0  0  0
 13 29  1  0  0  0
 13 39  1  0  0  0
 14 28  1  0  0  0
 14 13  1  0  0  0
 14 40  1  0  0  0
 15 16  1  0  0  0
 15 14  1  0  0  0
 15 41  1  0  0  0
 16 12  1  0  0  0
 17 15  1  0  0  0
 18 17  1  0  0  0
 18 42  1  0  0  0
 19  2  1  0  0  0
 20 19  2  0  0  0
 20 21  1  0  0  0
 21 22  2  0  0  0
 22 23  1  0  0  0
 23 17  1  0  0  0
 24 19  1  0  0  0
 24 43  1  0  0  0
 25  4  1  0  0  0
 25 44  1  0  0  0
 26  6  2  0  0  0
 26  5  1  0  0  0
 26 45  1  0  0  0
 27  4  2  0  0  0
 27 46  1  0  0  0
 28 47  1  0  0  0
 29 48  1  0  0  0
 30  5  1  0  0  0
M  END
$$$$
