XVI
  CCTOOLS-0919241037

 54 57  0  0  1  0  0  0  0  0999 V2000
    2.6670    3.8550   -1.0190 C   0  0  0  0  0
    2.2320    1.5620   -0.5760 C   0  0  0  0  0
    1.6840   -0.7580   -0.0970 C   0  0  0  0  0
    1.0530   -2.9930    0.4000 C   0  0  0  0  0
    2.6050    0.2070   -0.5380 C   0  0  0  0  0
    3.9530   -0.1970   -0.9590 C   0  0  0  0  0
    6.2980   -0.6510   -0.4770 C   0  0  0  0  0
    7.4780   -0.1560    0.3610 C   0  0  0  0  0
   -1.3080    1.3800    0.6700 C   0  0  0  0  0
   -3.5240    1.4920    0.8730 N   0  0  0  0  0
   -5.1390    0.1540   -0.2070 C   0  0  0  0  0
   -2.5170    0.8140    0.2390 C   0  0  0  0  0
   -6.5840   -0.2030   -0.4450 C   0  0  0  0  0
   -7.4800    0.7140    0.3900 C   0  0  0  0  0
   -6.9140   -0.0250   -1.9290 C   0  0  0  0  0
   -6.8140   -1.6030   -0.0560 C   0  0  0  0  0
    3.1160    2.4990   -1.0010 O   0  0  0  0  0
    0.9620    1.9370   -0.1850 C   0  0  0  0  0
    0.0500    0.9730    0.2520 C   0  0  0  0  0
    0.4180   -0.3730    0.2970 C   0  0  0  0  0
    2.0390   -2.0670   -0.0590 O   0  0  0  0  0
    0.6800   -2.6670    1.7080 F   0  0  0  0  0
   -0.0690   -2.9320   -0.4340 F   0  0  0  0  0
    4.1660   -0.4870   -2.1220 O   0  0  0  0  0
    4.9530   -0.2480   -0.0580 N   0  0  0  0  0
    7.0570   -1.6260    0.4260 C   0  0  0  0  0
    7.1910    0.6480    1.4690 F   0  0  0  0  0
   -1.6310    2.4060    1.5650 C   0  0  0  0  0
   -2.9350    2.4730    1.6810 N   0  0  0  0  0
   -4.8260    1.1550    0.6440 C   0  0  0  0  0
   -4.1260   -0.5570   -0.8680 C   0  0  0  0  0
   -2.8220   -0.2290   -0.6480 C   0  0  0  0  0
   -6.9920   -2.6840    0.2450 N   0  0  0  0  0
    1.8060    3.9430   -1.6810 H   0  0  0  0  0
    2.3820    4.1560   -0.0110 H   0  0  0  0  0
    3.4690    4.4990   -1.3780 H   0  0  0  0  0
    1.4650   -4.0020    0.3810 H   0  0  0  0  0
    6.4470   -0.7420   -1.5540 H   0  0  0  0  0
    8.4040    0.0790   -0.1640 H   0  0  0  0  0
   -7.3090    1.7510    0.1010 H   0  0  0  0  0
   -8.5250    0.4560    0.2170 H   0  0  0  0  0
   -7.2440    0.5870    1.4470 H   0  0  0  0  0
   -6.2760   -0.6780   -2.5240 H   0  0  0  0  0
   -7.9590   -0.2830   -2.1010 H   0  0  0  0  0
   -6.7430    1.0120   -2.2170 H   0  0  0  0  0
    0.6730    2.9770   -0.2180 H   0  0  0  0  0
   -0.2900   -1.1150    0.6360 H   0  0  0  0  0
    4.7840   -0.0170    0.8690 H   0  0  0  0  0
    6.5560   -1.9660    1.3320 H   0  0  0  0  0
    7.7060   -2.3570   -0.0560 H   0  0  0  0  0
   -0.9220    3.0390    2.0780 H   0  0  0  0  0
   -5.6150    1.6940    1.1490 H   0  0  0  0  0
   -4.3790   -1.3580   -1.5480 H   0  0  0  0  0
   -2.0310   -0.7660   -1.1510 H   0  0  0  0  0
  1 34  1  0  0  0
  1 35  1  0  0  0
  1 36  1  0  0  0
  2 17  1  0  0  0
  2 18  2  0  0  0
  3  5  2  0  0  0
  3 20  1  0  0  0
  4 21  1  0  0  0
  4 22  1  0  0  0
  4 37  1  0  0  0
  5  2  1  0  0  0
  6  5  1  0  0  0
  6 25  1  0  0  0
  7 25  1  0  0  0
  7  8  1  0  0  0
  7 26  1  0  0  0
  7 38  1  0  0  0
  8 26  1  0  0  0
  8 27  1  0  0  0
  8 39  1  0  0  0
  9 12  2  0  0  0
 10 30  1  0  0  0
 11 13  1  0  0  0
 12 10  1  0  0  0
 12 32  1  0  0  0
 13 15  1  0  0  0
 13 14  1  0  0  0
 13 16  1  0  0  0
 14 40  1  0  0  0
 14 41  1  0  0  0
 14 42  1  0  0  0
 15 43  1  0  0  0
 15 44  1  0  0  0
 15 45  1  0  0  0
 16 33  3  0  0  0
 17  1  1  0  0  0
 18 46  1  0  0  0
 19 18  1  0  0  0
 19  9  1  0  0  0
 20 19  2  0  0  0
 20 47  1  0  0  0
 21  3  1  0  0  0
 23  4  1  0  0  0
 24  6  2  0  0  0
 25 48  1  0  0  0
 26 49  1  0  0  0
 26 50  1  0  0  0
 28  9  1  0  0  0
 28 29  2  0  0  0
 28 51  1  0  0  0
 29 10  1  0  0  0
 30 11  2  0  0  0
 30 52  1  0  0  0
 31 11  1  0  0  0
 31 53  1  0  0  0
 32 31  2  0  0  0
 32 54  1  0  0  0
M  END
$$$$
