XW3
  CCTOOLS-0919241037

 57 61  0  0  0  0  0  0  0  0999 V2000
   -6.7950    3.2940    1.1090 C   0  0  0  0  0
   -4.7180    2.1500    0.4370 C   0  0  0  0  0
   -0.6840    1.6400    0.9190 C   0  0  0  0  0
   -0.0400    0.7270    0.1270 C   0  0  0  0  0
   -0.8050   -0.0360   -0.8620 C   0  0  0  0  0
   -2.8840   -0.6120   -1.9860 C   0  0  0  0  0
   -3.3920   -1.9060   -1.3490 C   0  0  0  0  0
   -2.6560   -3.9030   -0.2480 C   0  0  0  0  0
   -3.5740   -3.5840    0.9370 C   0  0  0  0  0
   -2.7860    1.0710   -0.2040 C   0  0  0  0  0
    1.4190    0.5130    0.2690 C   0  0  0  0  0
    3.2720   -0.4030    1.4900 C   0  0  0  0  0
    2.2970    1.0330   -0.6850 C   0  0  0  0  0
    7.4500   -0.3060    2.0580 C   0  0  0  0  0
    8.2900   -0.4950    0.9760 C   0  0  0  0  0
    7.7610   -0.4860   -0.3070 C   0  0  0  0  0
    6.3980   -0.2860   -0.4590 C   0  0  0  0  0
   -6.0780    2.3240    0.2770 N   0  0  0  0  0
   -4.0830    2.8730    1.3520 N   0  0  0  0  0
   -2.7840    2.7440    1.5450 C   0  0  0  0  0
   -2.0770    1.8220    0.7590 C   0  0  0  0  0
   -0.2400   -0.8500   -1.5700 O   0  0  0  0  0
   -2.1320    0.1590   -0.9920 N   0  0  0  0  0
   -2.2820   -2.6790   -0.8870 O   0  0  0  0  0
   -4.0760   -4.8350    1.5210 N   0  0  0  0  0
   -4.7530   -2.7420    0.4380 C   0  0  0  0  0
   -4.2450   -1.5910   -0.2450 O   0  0  0  0  0
   -4.0950    1.2630   -0.3240 N   0  0  0  0  0
    1.9160   -0.2040    1.3580 C   0  0  0  0  0
    4.1500    0.1120    0.5350 C   0  0  0  0  0
    3.6540    0.8340   -0.5510 C   0  0  0  0  0
    1.6800    1.9300   -2.0370 CL  0  0  0  0  0
    5.6090   -0.1020    0.6790 C   0  0  0  0  0
    6.1570   -0.1180    1.8870 N   0  0  0  0  0
    5.8400   -0.2690   -1.6890 F   0  0  0  0  0
   -6.3810    4.2890    0.9460 H   0  0  0  0  0
   -7.8520    3.2920    0.8410 H   0  0  0  0  0
   -6.6860    3.0220    2.1590 H   0  0  0  0  0
   -0.1370    2.2110    1.6540 H   0  0  0  0  0
   -2.2340   -0.8520   -2.8270 H   0  0  0  0  0
   -3.7310   -0.0230   -2.3370 H   0  0  0  0  0
   -3.9520   -2.4800   -2.0880 H   0  0  0  0  0
   -1.7630   -4.4160    0.1100 H   0  0  0  0  0
   -3.1830   -4.5400   -0.9590 H   0  0  0  0  0
   -3.0180   -3.0250    1.6900 H   0  0  0  0  0
    3.6570   -0.9570    2.3330 H   0  0  0  0  0
    7.8590   -0.3170    3.0570 H   0  0  0  0  0
    9.3480   -0.6470    1.1280 H   0  0  0  0  0
    8.3970   -0.6300   -1.1680 H   0  0  0  0  0
   -6.5590    1.8050   -0.3870 H   0  0  0  0  0
   -2.2760    3.3370    2.2910 H   0  0  0  0  0
   -4.6840   -4.6500    2.3050 H   0  0  0  0  0
   -4.5440   -5.3970    0.8260 H   0  0  0  0  0
   -5.3610   -3.3340   -0.2460 H   0  0  0  0  0
   -5.3590   -2.4240    1.2860 H   0  0  0  0  0
    1.2370   -0.6030    2.0970 H   0  0  0  0  0
    4.3340    1.2350   -1.2880 H   0  0  0  0  0
  1 18  1  0  0  0
  1 36  1  0  0  0
  1 37  1  0  0  0
  1 38  1  0  0  0
  2 19  2  0  0  0
  2 18  1  0  0  0
  3 21  1  0  0  0
  3 39  1  0  0  0
  4  3  2  0  0  0
  5 23  1  0  0  0
  5  4  1  0  0  0
  6 23  1  0  0  0
  6 40  1  0  0  0
  6 41  1  0  0  0
  7  6  1  0  0  0
  7 42  1  0  0  0
  8 24  1  0  0  0
  8 43  1  0  0  0
  8 44  1  0  0  0
  9  8  1  0  0  0
  9 26  1  0  0  0
  9 45  1  0  0  0
 10 28  2  0  0  0
 10 21  1  0  0  0
 11  4  1  0  0  0
 11 29  2  0  0  0
 12 29  1  0  0  0
 12 46  1  0  0  0
 13 11  1  0  0  0
 14 15  2  0  0  0
 14 34  1  0  0  0
 14 47  1  0  0  0
 15 16  1  0  0  0
 15 48  1  0  0  0
 16 17  2  0  0  0
 16 49  1  0  0  0
 17 35  1  0  0  0
 18 50  1  0  0  0
 20 19  1  0  0  0
 20 51  1  0  0  0
 21 20  2  0  0  0
 22  5  2  0  0  0
 23 10  1  0  0  0
 24  7  1  0  0  0
 25  9  1  0  0  0
 25 52  1  0  0  0
 25 53  1  0  0  0
 26 27  1  0  0  0
 26 54  1  0  0  0
 26 55  1  0  0  0
 27  7  1  0  0  0
 28  2  1  0  0  0
 29 56  1  0  0  0
 30 12  2  0  0  0
 31 13  2  0  0  0
 31 30  1  0  0  0
 31 57  1  0  0  0
 32 13  1  0  0  0
 33 17  1  0  0  0
 33 30  1  0  0  0
 34 33  2  0  0  0
M  END
$$$$
