Y4B
  CCTOOLS-0919241037

 57 60  0  0  1  0  0  0  0  0999 V2000
   -0.6870    0.2520   -0.4940 C   0  0  0  0  0
    0.0800   -0.9560    0.0650 C   0  0  0  0  0
    1.4090   -1.0210   -0.6630 C   0  0  0  0  0
    2.2000    0.2590   -0.2810 C   0  0  0  0  0
   -2.0370    0.3630    0.2140 C   0  0  0  0  0
   -2.8490   -0.9100   -0.0360 C   0  0  0  0  0
    0.1020    1.5450   -0.3190 C   0  0  0  0  0
    1.5050    1.4350   -0.9400 C   0  0  0  0  0
   -0.7310   -2.2270   -0.1920 C   0  0  0  0  0
    3.6160   -0.0480   -0.7560 C   0  0  0  0  0
    2.3690   -2.1250   -0.2080 C   0  0  0  0  0
   -2.0860   -2.1180    0.5110 C   0  0  0  0  0
   -2.8020    1.5710   -0.3330 C   0  0  0  0  0
    3.7550   -1.5880   -0.6580 C   0  0  0  0  0
   -4.2020   -0.7990    0.6690 C   0  0  0  0  0
    2.1910    0.4390    1.2390 C   0  0  0  0  0
   -1.8130    0.5390    1.7170 C   0  0  0  0  0
   -4.1560    1.6810    0.3710 C   0  0  0  0  0
   -4.9660    0.4070    0.1190 C   0  0  0  0  0
    4.6250    0.6250    0.1380 C   0  0  0  0  0
    5.0480    2.0450   -0.1390 C   0  0  0  0  0
   -5.1710    0.2430   -1.2850 O   0  0  0  0  0
    5.0940    0.0270    1.0770 O   0  0  0  0  0
   -0.8700    0.0930   -1.5560 H   0  0  0  0  0
    0.2520   -0.8220    1.1330 H   0  0  0  0  0
    1.2490   -1.0780   -1.7400 H   0  0  0  0  0
   -3.0070   -1.0350   -1.1070 H   0  0  0  0  0
   -0.4380    2.3610   -0.8000 H   0  0  0  0  0
    0.1990    1.7620    0.7450 H   0  0  0  0  0
    2.0660    2.3500   -0.7520 H   0  0  0  0  0
    1.4220    1.2630   -2.0130 H   0  0  0  0  0
   -0.8860   -2.3490   -1.2640 H   0  0  0  0  0
   -0.1880   -3.0890    0.1970 H   0  0  0  0  0
    3.7480    0.2800   -1.7870 H   0  0  0  0  0
    2.3350   -2.2440    0.8750 H   0  0  0  0  0
    2.1390   -3.0660   -0.7070 H   0  0  0  0  0
   -1.9300   -1.9950    1.5830 H   0  0  0  0  0
   -2.6630   -3.0240    0.3290 H   0  0  0  0  0
   -2.2250    2.4780   -0.1540 H   0  0  0  0  0
   -2.9590    1.4460   -1.4050 H   0  0  0  0  0
    4.0190   -2.0020   -1.6320 H   0  0  0  0  0
    4.5150   -1.8490    0.0780 H   0  0  0  0  0
   -4.7800   -1.7070    0.4910 H   0  0  0  0  0
   -4.0450   -0.6730    1.7400 H   0  0  0  0  0
    2.6350   -0.4380    1.7100 H   0  0  0  0  0
    2.7690    1.3250    1.5030 H   0  0  0  0  0
    1.1640    0.5570    1.5850 H   0  0  0  0  0
   -1.2340    1.4450    1.8950 H   0  0  0  0  0
   -2.7760    0.6180    2.2220 H   0  0  0  0  0
   -1.2690   -0.3220    2.1060 H   0  0  0  0  0
   -3.9990    1.8060    1.4420 H   0  0  0  0  0
   -4.7000    2.5410   -0.0190 H   0  0  0  0  0
   -5.9310    0.4860    0.6210 H   0  0  0  0  0
    4.5220    2.4160   -1.0180 H   0  0  0  0  0
    4.8050    2.6700    0.7200 H   0  0  0  0  0
    6.1230    2.0750   -0.3180 H   0  0  0  0  0
   -5.6500    0.9720   -1.7010 H   0  0  0  0  0
  1  2  1  0  0  0
  1  7  1  0  0  0
  1 24  1  0  0  0
  2  3  1  0  0  0
  2 25  1  0  0  0
  3 11  1  0  0  0
  3  4  1  0  0  0
  3 26  1  0  0  0
  4 10  1  0  0  0
  5  1  1  0  0  0
  6 12  1  0  0  0
  6  5  1  0  0  0
  6 27  1  0  0  0
  7  8  1  0  0  0
  7 28  1  0  0  0
  7 29  1  0  0  0
  8  4  1  0  0  0
  8 30  1  0  0  0
  8 31  1  0  0  0
  9  2  1  0  0  0
  9 32  1  0  0  0
  9 33  1  0  0  0
 10 20  1  0  0  0
 10 34  1  0  0  0
 11 14  1  0  0  0
 11 35  1  0  0  0
 11 36  1  0  0  0
 12  9  1  0  0  0
 12 37  1  0  0  0
 12 38  1  0  0  0
 13  5  1  0  0  0
 13 39  1  0  0  0
 13 40  1  0  0  0
 14 10  1  0  0  0
 14 41  1  0  0  0
 14 42  1  0  0  0
 15  6  1  0  0  0
 15 43  1  0  0  0
 15 44  1  0  0  0
 16  4  1  0  0  0
 16 45  1  0  0  0
 16 46  1  0  0  0
 16 47  1  0  0  0
 17  5  1  0  0  0
 17 48  1  0  0  0
 17 49  1  0  0  0
 17 50  1  0  0  0
 18 13  1  0  0  0
 18 51  1  0  0  0
 18 52  1  0  0  0
 19 15  1  0  0  0
 19 18  1  0  0  0
 19 22  1  0  0  0
 19 53  1  0  0  0
 20 21  1  0  0  0
 20 23  2  0  0  0
 21 54  1  0  0  0
 21 55  1  0  0  0
 21 56  1  0  0  0
 22 57  1  0  0  0
M  END
$$$$
