Y9J
  CCTOOLS-1115241517

 62 64  0  0  1  0  0  0  0  0999 V2000
    7.1100   -0.7370    0.6040 C   0  0  0  0  0
    5.9960    0.0220   -0.1200 C   0  0  0  0  0
    4.6420   -0.3680    0.4770 C   0  0  0  0  0
    3.5400    0.4810   -0.1610 C   0  0  0  0  0
    2.2050    0.1800    0.5230 C   0  0  0  0  0
    0.8750    0.5930   -1.5750 C   0  0  0  0  0
   -0.2500    0.7930    0.6210 C   0  0  0  0  0
   -2.5360    1.8660    0.4760 C   0  0  0  0  0
   -2.2970   -0.6320    0.1130 C   0  0  0  0  0
   -4.7290    2.8240    0.7490 C   0  0  0  0  0
   -3.3410    2.9770    0.7070 C   0  0  0  0  0
   -6.4980   -0.8090    0.1960 C   0  0  0  0  0
   10.9320   -0.7150    0.1350 C   0  0  0  0  0
    9.5780   -1.1050    0.7320 C   0  0  0  0  0
    8.4640   -0.3470    0.0080 C   0  0  0  0  0
    1.1030    1.0290   -0.1150 C   0  0  0  0  0
   -0.5680    0.0370   -1.6510 C   0  0  0  0  0
   -0.8580   -0.3620   -0.1980 C   0  0  0  0  0
   -1.0540    2.0770    0.4180 C   0  0  0  0  0
   -3.1170    0.6110    0.3060 C   0  0  0  0  0
   -4.5050    0.4790    0.3380 C   0  0  0  0  0
   -5.3090    1.5840    0.5590 C   0  0  0  0  0
   -5.0710   -0.7420    0.1510 O   0  0  0  0  0
   -6.9410   -2.2310   -0.0310 C   0  0  0  0  0
   -6.1200   -3.0990   -0.2130 O   0  0  0  0  0
   -8.2490   -2.5340   -0.0320 O   0  0  0  0  0
    1.0150    1.7160   -2.4490 O   0  0  0  0  0
    4.3880   -1.7500    0.2180 O   0  0  0  0  0
    7.0930   -0.4820    1.6640 H   0  0  0  0  0
    6.9560   -1.8090    0.4860 H   0  0  0  0  0
    6.1500    1.0940   -0.0010 H   0  0  0  0  0
    6.0130   -0.2320   -1.1800 H   0  0  0  0  0
    4.6560   -0.1960    1.5530 H   0  0  0  0  0
    3.7800    1.5380   -0.0400 H   0  0  0  0  0
    3.4670    0.2440   -1.2220 H   0  0  0  0  0
    1.9650   -0.8760    0.4030 H   0  0  0  0  0
    2.2780    0.4180    1.5840 H   0  0  0  0  0
    1.5900   -0.1830   -1.8490 H   0  0  0  0  0
   -0.1220    0.5400    1.6740 H   0  0  0  0  0
   -2.7280   -1.2100   -0.7040 H   0  0  0  0  0
   -2.3510   -1.2260    1.0250 H   0  0  0  0  0
   -5.3630    3.6790    0.9300 H   0  0  0  0  0
   -2.9070    3.9550    0.8550 H   0  0  0  0  0
   -6.8470   -0.4710    1.1710 H   0  0  0  0  0
   -6.9160   -0.1690   -0.5820 H   0  0  0  0  0
   10.9480   -0.9700   -0.9240 H   0  0  0  0  0
   11.0860    0.3570    0.2540 H   0  0  0  0  0
   11.7250   -1.2560    0.6510 H   0  0  0  0  0
    9.4240   -2.1780    0.6130 H   0  0  0  0  0
    9.5610   -0.8510    1.7920 H   0  0  0  0  0
    8.4810   -0.6010   -1.0520 H   0  0  0  0  0
    8.6180    0.7260    0.1270 H   0  0  0  0  0
    1.3720    2.0850   -0.0750 H   0  0  0  0  0
   -1.2620    0.8080   -1.9850 H   0  0  0  0  0
   -0.6130   -0.8310   -2.3090 H   0  0  0  0  0
   -0.2840   -1.2610    0.0290 H   0  0  0  0  0
   -0.7720    2.7910    1.1910 H   0  0  0  0  0
   -0.7990    2.4990   -0.5540 H   0  0  0  0  0
   -6.3830    1.4770    0.5850 H   0  0  0  0  0
   -8.4850   -3.4600   -0.1820 H   0  0  0  0  0
    0.8830    1.5060   -3.3830 H   0  0  0  0  0
    4.3610   -1.9760   -0.7210 H   0  0  0  0  0
  1  2  1  0  0  0
  1 29  1  0  0  0
  1 30  1  0  0  0
  2  3  1  0  0  0
  2 31  1  0  0  0
  2 32  1  0  0  0
  3 28  1  0  0  0
  3 33  1  0  0  0
  4  3  1  0  0  0
  4 34  1  0  0  0
  4 35  1  0  0  0
  5  4  1  0  0  0
  5 36  1  0  0  0
  5 37  1  0  0  0
  6 16  1  0  0  0
  6 38  1  0  0  0
  7 16  1  0  0  0
  7 39  1  0  0  0
  8 19  1  0  0  0
  9 18  1  0  0  0
  9 40  1  0  0  0
  9 41  1  0  0  0
 10 11  2  0  0  0
 10 42  1  0  0  0
 11  8  1  0  0  0
 11 43  1  0  0  0
 12 23  1  0  0  0
 12 44  1  0  0  0
 12 45  1  0  0  0
 13 14  1  0  0  0
 13 46  1  0  0  0
 13 47  1  0  0  0
 13 48  1  0  0  0
 14 15  1  0  0  0
 14 49  1  0  0  0
 14 50  1  0  0  0
 15  1  1  0  0  0
 15 51  1  0  0  0
 15 52  1  0  0  0
 16  5  1  0  0  0
 16 53  1  0  0  0
 17  6  1  0  0  0
 17 54  1  0  0  0
 17 55  1  0  0  0
 18 17  1  0  0  0
 18  7  1  0  0  0
 18 56  1  0  0  0
 19  7  1  0  0  0
 19 57  1  0  0  0
 19 58  1  0  0  0
 20  8  2  0  0  0
 20  9  1  0  0  0
 21 20  1  0  0  0
 22 10  1  0  0  0
 22 21  2  0  0  0
 22 59  1  0  0  0
 23 21  1  0  0  0
 24 12  1  0  0  0
 25 24  2  0  0  0
 26 24  1  0  0  0
 26 60  1  0  0  0
 27  6  1  0  0  0
 27 61  1  0  0  0
 28 62  1  0  0  0
M  END
$$$$
