Y9Q
  CCTOOLS-0919241038

 60 62  0  0  0  0  0  0  0  0999 V2000
    0.6330   -3.7080   -1.3800 C   0  0  0  0  0
   -0.4990   -3.1680   -0.5050 C   0  0  0  0  0
   -0.1160   -3.3100    0.9700 C   0  0  0  0  0
   -2.0360   -1.3160   -1.3090 C   0  0  0  0  0
   -2.9240   -0.9330   -0.1230 C   0  0  0  0  0
   -4.2900   -0.4730   -0.6370 C   0  0  0  0  0
   -0.7270   -1.7550   -0.8170 N   0  0  0  0  0
   -5.1780   -0.0900    0.5490 C   0  0  0  0  0
   -6.4540    0.3380    0.0690 O   0  0  0  0  0
   -7.3640    0.7210    1.1020 C   0  0  0  0  0
   -8.6700    1.1530    0.4860 C   0  0  0  0  0
   -9.6810    1.5580    1.2710 O   0  0  0  0  0
   -8.8070    1.1350   -0.7140 O   0  0  0  0  0
    0.2970   -0.8320   -0.6460 C   0  0  0  0  0
    0.0490    0.5260   -0.8440 C   0  0  0  0  0
    1.0160    1.4080   -0.6830 N   0  0  0  0  0
    2.2340    1.0050   -0.3330 C   0  0  0  0  0
    2.4870   -0.3610   -0.1330 C   0  0  0  0  0
    1.5060   -1.2440   -0.2920 N   0  0  0  0  0
    3.8420   -0.8170    0.2570 C   0  0  0  0  0
    3.9980   -1.7560    1.2760 C   0  0  0  0  0
    5.2620   -2.1770    1.6350 C   0  0  0  0  0
    6.3730   -1.6700    0.9870 C   0  0  0  0  0
    6.2250   -0.7380   -0.0250 C   0  0  0  0  0
    4.9660   -0.3130   -0.3960 C   0  0  0  0  0
    3.3210    1.9960   -0.1530 C   0  0  0  0  0
    3.5040    3.0110   -1.0910 C   0  0  0  0  0
    4.5180    3.9310   -0.9180 C   0  0  0  0  0
    5.3520    3.8470    0.1820 C   0  0  0  0  0
    5.1750    2.8420    1.1160 C   0  0  0  0  0
    4.1600    1.9200    0.9580 C   0  0  0  0  0
    0.8030   -4.7590   -1.1480 H   0  0  0  0  0
    0.3600   -3.6070   -2.4310 H   0  0  0  0  0
    1.5440   -3.1410   -1.1860 H   0  0  0  0  0
   -1.4100   -3.7350   -0.6990 H   0  0  0  0  0
    0.7950   -2.7430    1.1640 H   0  0  0  0  0
   -0.9230   -2.9250    1.5940 H   0  0  0  0  0
    0.0540   -4.3610    1.2020 H   0  0  0  0  0
   -2.5050   -2.1250   -1.8670 H   0  0  0  0  0
   -1.9070   -0.4510   -1.9600 H   0  0  0  0  0
   -3.0520   -1.7970    0.5290 H   0  0  0  0  0
   -2.4540   -0.1230    0.4360 H   0  0  0  0  0
   -4.1610    0.3910   -1.2880 H   0  0  0  0  0
   -4.7590   -1.2830   -1.1950 H   0  0  0  0  0
   -5.3060   -0.9550    1.2010 H   0  0  0  0  0
   -4.7090    0.7190    1.1080 H   0  0  0  0  0
   -7.5380   -0.1260    1.7650 H   0  0  0  0  0
   -6.9410    1.5480    1.6720 H   0  0  0  0  0
  -10.4990    1.8250    0.8300 H   0  0  0  0  0
   -0.9380    0.8570   -1.1290 H   0  0  0  0  0
    3.1310   -2.1530    1.7840 H   0  0  0  0  0
    5.3840   -2.9040    2.4250 H   0  0  0  0  0
    7.3610   -2.0020    1.2710 H   0  0  0  0  0
    7.0960   -0.3450   -0.5280 H   0  0  0  0  0
    4.8510    0.4140   -1.1870 H   0  0  0  0  0
    2.8540    3.0770   -1.9510 H   0  0  0  0  0
    4.6610    4.7180   -1.6440 H   0  0  0  0  0
    6.1450    4.5690    0.3130 H   0  0  0  0  0
    5.8300    2.7810    1.9730 H   0  0  0  0  0
    4.0200    1.1380    1.6900 H   0  0  0  0  0
  1 32  1  0  0  0
  1 33  1  0  0  0
  1 34  1  0  0  0
  2  3  1  0  0  0
  2  1  1  0  0  0
  2 35  1  0  0  0
  3 36  1  0  0  0
  3 37  1  0  0  0
  3 38  1  0  0  0
  4  7  1  0  0  0
  4 39  1  0  0  0
  4 40  1  0  0  0
  5  4  1  0  0  0
  5 41  1  0  0  0
  5 42  1  0  0  0
  6  5  1  0  0  0
  6 43  1  0  0  0
  6 44  1  0  0  0
  7  2  1  0  0  0
  7 14  1  0  0  0
  8  9  1  0  0  0
  8  6  1  0  0  0
  8 45  1  0  0  0
  8 46  1  0  0  0
 10  9  1  0  0  0
 10 47  1  0  0  0
 10 48  1  0  0  0
 11 10  1  0  0  0
 12 11  1  0  0  0
 12 49  1  0  0  0
 13 11  2  0  0  0
 14 15  2  0  0  0
 15 16  1  0  0  0
 15 50  1  0  0  0
 17 16  2  0  0  0
 17 26  1  0  0  0
 18 17  1  0  0  0
 19 14  1  0  0  0
 19 18  2  0  0  0
 20 21  1  0  0  0
 20 18  1  0  0  0
 21 51  1  0  0  0
 22 21  2  0  0  0
 22 52  1  0  0  0
 23 22  1  0  0  0
 23 53  1  0  0  0
 24 23  2  0  0  0
 24 25  1  0  0  0
 24 54  1  0  0  0
 25 20  2  0  0  0
 25 55  1  0  0  0
 26 27  1  0  0  0
 27 28  2  0  0  0
 27 56  1  0  0  0
 28 57  1  0  0  0
 29 28  1  0  0  0
 29 58  1  0  0  0
 30 29  2  0  0  0
 30 59  1  0  0  0
 31 26  2  0  0  0
 31 30  1  0  0  0
 31 60  1  0  0  0
M  END
$$$$
