YEQ
  CCTOOLS-0919241038

 42 44  0  0  1  0  0  0  0  0999 V2000
    3.1620    0.9900   -0.8980 C   0  0  0  0  0
    3.2800   -0.8920    0.5800 C   0  0  0  0  0
   -5.1220   -0.0320    1.0380 C   0  0  0  0  0
   -1.4050    2.0940    0.6880 C   0  0  0  0  0
   -1.6600    0.7150    0.0760 C   0  0  0  0  0
   -1.3520   -1.6620    0.4160 C   0  0  0  0  0
   -0.7570   -1.8280   -0.9840 C   0  0  0  0  0
    0.7580   -1.6190   -0.9160 C   0  0  0  0  0
    1.0490   -0.2300   -0.3410 C   0  0  0  0  0
    0.4010   -0.1100    1.0410 C   0  0  0  0  0
    2.5390   -0.0390   -0.2160 C   0  0  0  0  0
    4.5270    1.1670   -0.7850 C   0  0  0  0  0
    5.2730    0.3120    0.0130 C   0  0  0  0  0
    4.6460   -0.7200    0.6960 C   0  0  0  0  0
   -3.1450    0.4740   -0.0160 C   0  0  0  0  0
   -5.0400    0.3610   -1.3090 C   0  0  0  0  0
   -5.7800    0.0510   -0.1790 C   0  0  0  0  0
   -1.0480   -0.3170    0.9230 N   0  0  0  0  0
   -3.7360    0.5560   -1.1910 N   0  0  0  0  0
   -3.8170    0.1860    1.0800 N   0  0  0  0  0
    6.6170    0.4840    0.1250 O   0  0  0  0  0
    2.5820    1.6520   -1.5230 H   0  0  0  0  0
    2.7910   -1.6950    1.1120 H   0  0  0  0  0
   -5.6670   -0.2670    1.9400 H   0  0  0  0  0
   -1.8590    2.8600    0.0600 H   0  0  0  0  0
   -1.8420    2.1360    1.6850 H   0  0  0  0  0
   -0.3310    2.2690    0.7540 H   0  0  0  0  0
   -1.2220    0.6740   -0.9220 H   0  0  0  0  0
   -2.4330   -1.7960    0.3700 H   0  0  0  0  0
   -0.9230   -2.4070    1.0850 H   0  0  0  0  0
   -0.9700   -2.8310   -1.3530 H   0  0  0  0  0
   -1.1960   -1.0920   -1.6560 H   0  0  0  0  0
    1.2030   -2.3800   -0.2750 H   0  0  0  0  0
    1.1810   -1.6950   -1.9180 H   0  0  0  0  0
    0.6390    0.5310   -1.0030 H   0  0  0  0  0
    0.8230   -0.8630    1.7060 H   0  0  0  0  0
    0.5940    0.8830    1.4470 H   0  0  0  0  0
    5.0140    1.9700   -1.3190 H   0  0  0  0  0
    5.2240   -1.3860    1.3180 H   0  0  0  0  0
   -5.5180    0.4290   -2.2750 H   0  0  0  0  0
   -6.8440   -0.1220   -0.2460 H   0  0  0  0  0
    6.8790    1.0690    0.8490 H   0  0  0  0  0
  1 11  2  0  0  0
  1 12  1  0  0  0
  1 22  1  0  0  0
  2 14  2  0  0  0
  2 23  1  0  0  0
  3 20  1  0  0  0
  3 24  1  0  0  0
  4 25  1  0  0  0
  4 26  1  0  0  0
  4 27  1  0  0  0
  5  4  1  0  0  0
  5 18  1  0  0  0
  5 28  1  0  0  0
  6  7  1  0  0  0
  6 29  1  0  0  0
  6 30  1  0  0  0
  7  8  1  0  0  0
  7 31  1  0  0  0
  7 32  1  0  0  0
  8 33  1  0  0  0
  8 34  1  0  0  0
  9 11  1  0  0  0
  9  8  1  0  0  0
  9 35  1  0  0  0
 10  9  1  0  0  0
 10 36  1  0  0  0
 10 37  1  0  0  0
 11  2  1  0  0  0
 12 13  2  0  0  0
 12 38  1  0  0  0
 13 14  1  0  0  0
 13 21  1  0  0  0
 14 39  1  0  0  0
 15  5  1  0  0  0
 16 19  2  0  0  0
 16 40  1  0  0  0
 17  3  2  0  0  0
 17 16  1  0  0  0
 17 41  1  0  0  0
 18  6  1  0  0  0
 18 10  1  0  0  0
 19 15  1  0  0  0
 20 15  2  0  0  0
 21 42  1  0  0  0
M  END
$$$$
