YI9
  CCTOOLS-0919241039

 38 38  0  0  0  0  0  0  0  0999 V2000
    2.5120    0.4480   -0.0060 C   0  0  0  0  0
    4.0050   -1.3300   -0.0000 C   0  0  0  0  0
   -8.6670    0.1260    0.0030 C   0  0  0  0  0
   -7.3490   -0.6510    0.0030 C   0  0  0  0  0
   -6.1770    0.3320    0.0010 C   0  0  0  0  0
   -4.8590   -0.4450    0.0010 C   0  0  0  0  0
   -3.6880    0.5390   -0.0010 C   0  0  0  0  0
   -2.3700   -0.2390   -0.0020 C   0  0  0  0  0
   -1.1970    0.7450   -0.0030 C   0  0  0  0  0
    0.1200   -0.0320   -0.0040 C   0  0  0  0  0
    1.2430    0.9090   -0.0050 N   0  0  0  0  0
    3.6910    1.4010   -0.0010 C   0  0  0  0  0
    5.0680    0.7620    0.0040 C   0  0  0  0  0
    6.0770    1.4340    0.0080 O   0  0  0  0  0
    5.1200   -0.5890    0.0040 N   0  0  0  0  0
    4.1330   -2.5400    0.0010 O   0  0  0  0  0
    2.7640   -0.8400   -0.0050 N   0  0  0  0  0
   -9.5020   -0.5750    0.0050 H   0  0  0  0  0
   -8.7190    0.7540    0.8930 H   0  0  0  0  0
   -8.7200    0.7520   -0.8870 H   0  0  0  0  0
   -7.2970   -1.2780    0.8930 H   0  0  0  0  0
   -7.2980   -1.2790   -0.8870 H   0  0  0  0  0
   -6.2300    0.9590   -0.8890 H   0  0  0  0  0
   -6.2290    0.9600    0.8910 H   0  0  0  0  0
   -4.8070   -1.0710    0.8910 H   0  0  0  0  0
   -4.8080   -1.0730   -0.8890 H   0  0  0  0  0
   -3.7400    1.1650   -0.8910 H   0  0  0  0  0
   -3.7390    1.1660    0.8880 H   0  0  0  0  0
   -2.3170   -0.8650    0.8890 H   0  0  0  0  0
   -2.3180   -0.8670   -0.8910 H   0  0  0  0  0
   -1.2500    1.3710   -0.8940 H   0  0  0  0  0
   -1.2490    1.3730    0.8860 H   0  0  0  0  0
    0.1730   -0.6590    0.8870 H   0  0  0  0  0
    0.1720   -0.6600   -0.8930 H   0  0  0  0  0
    1.0740    1.8650   -0.0060 H   0  0  0  0  0
    3.6160    2.0380   -0.8820 H   0  0  0  0  0
    3.6100    2.0380    0.8790 H   0  0  0  0  0
    5.9840   -1.0300    0.0080 H   0  0  0  0  0
  1 17  2  0  0  0
  1 12  1  0  0  0
  2 16  2  0  0  0
  2 15  1  0  0  0
  3  4  1  0  0  0
  3 18  1  0  0  0
  3 19  1  0  0  0
  3 20  1  0  0  0
  4  5  1  0  0  0
  4 21  1  0  0  0
  4 22  1  0  0  0
  5 23  1  0  0  0
  5 24  1  0  0  0
  6  5  1  0  0  0
  6 25  1  0  0  0
  6 26  1  0  0  0
  7  6  1  0  0  0
  7 27  1  0  0  0
  7 28  1  0  0  0
  8  9  1  0  0  0
  8  7  1  0  0  0
  8 29  1  0  0  0
  8 30  1  0  0  0
  9 10  1  0  0  0
  9 31  1  0  0  0
  9 32  1  0  0  0
 10 11  1  0  0  0
 10 33  1  0  0  0
 10 34  1  0  0  0
 11  1  1  0  0  0
 11 35  1  0  0  0
 12 13  1  0  0  0
 12 36  1  0  0  0
 12 37  1  0  0  0
 13 15  1  0  0  0
 13 14  2  0  0  0
 15 38  1  0  0  0
 17  2  1  0  0  0
M  END
$$$$
