YKU
  CCTOOLS-0919241039

 44 47  0  0  0  0  0  0  0  0999 V2000
    0.5920    0.2870   -0.0060 C   0  0  0  0  0
   -0.7900    0.4580    0.0030 N   0  0  0  0  0
   -1.6030   -0.6170    0.0130 C   0  0  0  0  0
   -3.0700   -0.4340    0.0230 C   0  0  0  0  0
   -4.9860    1.0240    0.0310 C   0  0  0  0  0
   -3.9110   -1.5450    0.0390 C   0  0  0  0  0
   -6.1660   -2.5000    0.0650 C   0  0  0  0  0
    0.1620    3.1520   -0.7020 C   0  0  0  0  0
    0.7440    5.3730   -0.0200 C   0  0  0  0  0
    2.1070    3.5250    0.6600 C   0  0  0  0  0
    5.7520   -3.5160   -0.0330 C   0  0  0  0  0
    6.0620   -2.1680   -0.0380 C   0  0  0  0  0
    5.0540   -1.2260   -0.0340 C   0  0  0  0  0
    3.7220   -1.6350   -0.0250 C   0  0  0  0  0
    3.4150   -2.9940   -0.0210 C   0  0  0  0  0
    4.4320   -3.9280   -0.0300 C   0  0  0  0  0
    2.6340   -0.6260   -0.0210 C   0  0  0  0  0
    1.2530   -0.9010   -0.0120 C   0  0  0  0  0
   -3.6150    0.8510    0.0210 C   0  0  0  0  0
   -5.8260   -0.0720    0.0410 C   0  0  0  0  0
   -5.2930   -1.3640    0.0480 C   0  0  0  0  0
    1.2640    2.6550   -0.0200 C   0  0  0  0  0
   -0.0930    4.5100   -0.7030 C   0  0  0  0  0
    1.8400    4.8800    0.6650 C   0  0  0  0  0
    2.7920    0.6810   -0.0230 N   0  0  0  0  0
    1.5260    1.2790   -0.0160 N   0  0  0  0  0
   -6.8580   -3.4010    0.0790 N   0  0  0  0  0
   -1.1300   -1.7360    0.0140 O   0  0  0  0  0
   -1.1680    1.3520    0.0020 H   0  0  0  0  0
   -5.4020    2.0200    0.0300 H   0  0  0  0  0
   -3.4950   -2.5410    0.0440 H   0  0  0  0  0
   -0.4920    2.4790   -1.2360 H   0  0  0  0  0
    0.5430    6.4340   -0.0230 H   0  0  0  0  0
    2.9620    3.1410    1.1960 H   0  0  0  0  0
    6.5440   -4.2510   -0.0360 H   0  0  0  0  0
    7.0950   -1.8530   -0.0440 H   0  0  0  0  0
    5.2970   -0.1740   -0.0370 H   0  0  0  0  0
    2.3850   -3.3160   -0.0140 H   0  0  0  0  0
    4.1950   -4.9820   -0.0270 H   0  0  0  0  0
    0.8000   -1.8810   -0.0090 H   0  0  0  0  0
   -2.9640    1.7130    0.0130 H   0  0  0  0  0
   -6.8960    0.0700    0.0490 H   0  0  0  0  0
   -0.9470    4.8980   -1.2380 H   0  0  0  0  0
    2.4870    5.5550    1.2050 H   0  0  0  0  0
  1  2  1  0  0  0
  1 26  1  0  0  0
  2  3  1  0  0  0
  2 29  1  0  0  0
  3 28  2  0  0  0
  3  4  1  0  0  0
  4 19  2  0  0  0
  5 30  1  0  0  0
  6 21  2  0  0  0
  6  4  1  0  0  0
  6 31  1  0  0  0
  7 21  1  0  0  0
  8 23  2  0  0  0
  8 32  1  0  0  0
  9 33  1  0  0  0
 10 24  1  0  0  0
 10 34  1  0  0  0
 11 12  1  0  0  0
 11 35  1  0  0  0
 12 13  2  0  0  0
 12 36  1  0  0  0
 13 37  1  0  0  0
 14 13  1  0  0  0
 14 17  1  0  0  0
 15 14  2  0  0  0
 15 38  1  0  0  0
 16 11  2  0  0  0
 16 15  1  0  0  0
 16 39  1  0  0  0
 17 25  2  0  0  0
 18 17  1  0  0  0
 18  1  2  0  0  0
 18 40  1  0  0  0
 19  5  1  0  0  0
 19 41  1  0  0  0
 20  5  2  0  0  0
 20 42  1  0  0  0
 21 20  1  0  0  0
 22 10  2  0  0  0
 22  8  1  0  0  0
 23  9  1  0  0  0
 23 43  1  0  0  0
 24  9  2  0  0  0
 24 44  1  0  0  0
 25 26  1  0  0  0
 26 22  1  0  0  0
 27  7  3  0  0  0
M  END
$$$$
