YN9
  CCTOOLS-0919241039

 48 50  0  0  0  0  0  0  0  0999 V2000
    5.1900    0.0920   -0.7200 C   0  0  0  0  0
    3.7450    0.4920   -0.5750 C   0  0  0  0  0
   -1.1760    0.5350   -0.1230 C   0  0  0  0  0
   -3.4920   -1.1890    0.0470 C   0  0  0  0  0
    7.7400   -0.6170   -0.5780 O   0  0  0  0  0
   -2.5560    1.1220    0.0210 C   0  0  0  0  0
    8.0070   -0.7020    1.6140 O   0  0  0  0  0
   -3.6660    0.2840    0.1030 C   0  0  0  0  0
   -0.2130    1.5890   -0.1790 O   0  0  0  0  0
   -4.0900   -2.0000    1.0100 C   0  0  0  0  0
   -2.7350   -1.7650   -0.9700 C   0  0  0  0  0
    5.8110   -0.0880    0.6670 C   0  0  0  0  0
    3.4030    1.8300   -0.5030 C   0  0  0  0  0
    2.7610   -0.4780   -0.5200 C   0  0  0  0  0
    2.0790    2.2000   -0.3700 C   0  0  0  0  0
    1.4360   -0.1140   -0.3880 C   0  0  0  0  0
   -3.1680   -3.9360   -0.0570 C   0  0  0  0  0
   -5.0970    2.2030    0.2880 C   0  0  0  0  0
   -3.9900    3.0320    0.2120 C   0  0  0  0  0
   -3.9250   -3.3690    0.9530 C   0  0  0  0  0
   -2.5770   -3.1350   -1.0180 C   0  0  0  0  0
   -2.9920   -5.4310   -0.1140 C   0  0  0  0  0
    7.2570   -0.4880    0.5210 C   0  0  0  0  0
   -4.9400    0.8320    0.2370 C   0  0  0  0  0
   -2.7220    2.4910    0.0780 C   0  0  0  0  0
    1.0910    1.2280   -0.3090 C   0  0  0  0  0
   -4.1480    4.3730    0.2680 F   0  0  0  0  0
    5.2530   -0.8470   -1.2710 H   0  0  0  0  0
    5.7300    0.8680   -1.2620 H   0  0  0  0  0
   -0.9620   -0.1070    0.7320 H   0  0  0  0  0
   -1.1250   -0.0520   -1.0400 H   0  0  0  0  0
    8.9290   -0.9570    1.4700 H   0  0  0  0  0
   -4.6810   -1.5590    1.7990 H   0  0  0  0  0
   -2.2740   -1.1410   -1.7210 H   0  0  0  0  0
    5.7480    0.8510    1.2170 H   0  0  0  0  0
    5.2720   -0.8640    1.2090 H   0  0  0  0  0
    4.1730    2.5870   -0.5500 H   0  0  0  0  0
    3.0300   -1.5230   -0.5810 H   0  0  0  0  0
    1.8130    3.2450   -0.3130 H   0  0  0  0  0
    0.6680   -0.8720   -0.3450 H   0  0  0  0  0
   -6.0840    2.6280    0.3920 H   0  0  0  0  0
   -4.3840   -3.9990    1.7000 H   0  0  0  0  0
   -1.9880   -3.5830   -1.8040 H   0  0  0  0  0
   -3.7890   -5.8690   -0.7140 H   0  0  0  0  0
   -2.0270   -5.6670   -0.5640 H   0  0  0  0  0
   -3.0300   -5.8400    0.8960 H   0  0  0  0  0
   -5.8030    0.1860    0.3010 H   0  0  0  0  0
   -1.8610    3.1410    0.0190 H   0  0  0  0  0
  1 28  1  0  0  0
  1 29  1  0  0  0
  2  1  1  0  0  0
  3  9  1  0  0  0
  3 30  1  0  0  0
  3 31  1  0  0  0
  4  8  1  0  0  0
  5 23  2  0  0  0
  6  3  1  0  0  0
  6 25  2  0  0  0
  7 32  1  0  0  0
  8  6  1  0  0  0
  9 26  1  0  0  0
 10  4  2  0  0  0
 10 33  1  0  0  0
 11  4  1  0  0  0
 11 34  1  0  0  0
 12  1  1  0  0  0
 12 23  1  0  0  0
 12 35  1  0  0  0
 12 36  1  0  0  0
 13  2  2  0  0  0
 13 37  1  0  0  0
 14  2  1  0  0  0
 14 38  1  0  0  0
 15 13  1  0  0  0
 15 39  1  0  0  0
 16 14  2  0  0  0
 16 40  1  0  0  0
 17 20  2  0  0  0
 17 21  1  0  0  0
 18 19  2  0  0  0
 18 41  1  0  0  0
 19 25  1  0  0  0
 19 27  1  0  0  0
 20 10  1  0  0  0
 20 42  1  0  0  0
 21 11  2  0  0  0
 21 43  1  0  0  0
 22 17  1  0  0  0
 22 44  1  0  0  0
 22 45  1  0  0  0
 22 46  1  0  0  0
 23  7  1  0  0  0
 24  8  2  0  0  0
 24 18  1  0  0  0
 24 47  1  0  0  0
 25 48  1  0  0  0
 26 15  2  0  0  0
 26 16  1  0  0  0
M  END
$$$$
