YNL
  CCTOOLS-0919241039

 38 40  0  0  0  0  0  0  0  0999 V2000
    0.4890    0.8380   -0.9420 C   0  0  0  0  0
   -2.4250    0.8730   -1.4490 C   0  0  0  0  0
   -1.2250   -0.9110   -0.3510 C   0  0  0  0  0
    0.0990   -0.5280   -0.5570 C   0  0  0  0  0
   -3.3820   -0.1420    0.5000 C   0  0  0  0  0
   -1.3460    1.1020   -2.4730 C   0  0  0  0  0
   -1.5080   -2.2300    0.0100 C   0  0  0  0  0
   -3.1620    0.8880    1.6090 C   0  0  0  0  0
    1.1220   -1.4750   -0.3940 C   0  0  0  0  0
    1.6990    1.4090   -0.3080 C   0  0  0  0  0
   -0.4940   -3.1490    0.1640 C   0  0  0  0  0
    0.8240   -2.7710   -0.0370 C   0  0  0  0  0
    1.7190    1.6590    1.0670 C   0  0  0  0  0
    2.8250    1.6940   -1.0790 C   0  0  0  0  0
    2.8530    2.1920    1.6510 C   0  0  0  0  0
    3.9500    2.2260   -0.4820 C   0  0  0  0  0
    3.9630    2.4770    0.8780 C   0  0  0  0  0
    0.6340    1.3820    1.8220 F   0  0  0  0  0
   -2.2980   -0.0420   -0.4810 N   0  0  0  0  0
   -0.1400    1.5710   -1.7920 N   0  0  0  0  0
   -4.1800    0.7100    2.6530 N   0  0  0  0  0
   -3.4310    1.5480   -1.4960 O   0  0  0  0  0
    2.1000   -3.9310    0.1610 CL  0  0  0  0  0
   -3.3910   -1.1430    0.9300 H   0  0  0  0  0
   -4.3350    0.0520    0.0090 H   0  0  0  0  0
   -1.1260    0.1660   -2.9870 H   0  0  0  0  0
   -1.6810    1.8450   -3.1960 H   0  0  0  0  0
   -2.5320   -2.5320    0.1690 H   0  0  0  0  0
   -2.1710    0.7510    2.0420 H   0  0  0  0  0
   -3.2400    1.8930    1.1930 H   0  0  0  0  0
    2.1500   -1.1840   -0.5500 H   0  0  0  0  0
   -0.7260   -4.1660    0.4450 H   0  0  0  0  0
    2.8180    1.4990   -2.1410 H   0  0  0  0  0
    2.8710    2.3870    2.7140 H   0  0  0  0  0
    4.8230    2.4470   -1.0790 H   0  0  0  0  0
    4.8460    2.8940    1.3390 H   0  0  0  0  0
   -4.0560    1.3790    3.3980 H   0  0  0  0  0
   -5.1100    0.7690    2.2650 H   0  0  0  0  0
  1  4  1  0  0  0
  2 19  1  0  0  0
  3  7  2  0  0  0
  4  9  2  0  0  0
  4  3  1  0  0  0
  5  8  1  0  0  0
  5 24  1  0  0  0
  5 25  1  0  0  0
  6  2  1  0  0  0
  6 26  1  0  0  0
  6 27  1  0  0  0
  7 11  1  0  0  0
  7 28  1  0  0  0
  8 21  1  0  0  0
  8 29  1  0  0  0
  8 30  1  0  0  0
  9 12  1  0  0  0
  9 31  1  0  0  0
 10  1  1  0  0  0
 11 32  1  0  0  0
 12 23  1  0  0  0
 12 11  2  0  0  0
 13 10  1  0  0  0
 13 18  1  0  0  0
 14 10  2  0  0  0
 14 33  1  0  0  0
 15 13  2  0  0  0
 15 34  1  0  0  0
 16 14  1  0  0  0
 16 35  1  0  0  0
 17 16  2  0  0  0
 17 15  1  0  0  0
 17 36  1  0  0  0
 19  3  1  0  0  0
 19  5  1  0  0  0
 20  1  2  0  0  0
 20  6  1  0  0  0
 21 37  1  0  0  0
 21 38  1  0  0  0
 22  2  2  0  0  0
M  END
$$$$
