YP4
  CCTOOLS-0919241040

 48 50  0  0  1  0  0  0  0  0999 V2000
    3.2910    2.5520   -0.3270 C   0  0  0  0  0
    0.4790    1.3750    0.4490 C   0  0  0  0  0
   -0.9050    1.0840   -0.1340 C   0  0  0  0  0
   -1.9810    1.6060    0.8200 C   0  0  0  0  0
   -3.3440    1.3190    0.2450 C   0  0  0  0  0
    1.5120    0.8750   -0.4670 N   0  0  0  0  0
    2.8570    1.1370    0.0620 C   0  0  0  0  0
    3.8280    0.1380   -0.5150 C   0  0  0  0  0
    5.0080   -0.1800    0.1780 C   0  0  0  0  0
    5.9090   -1.1220   -0.3800 C   0  0  0  0  0
    5.3130    0.4160    1.4130 C   0  0  0  0  0
    7.0890   -1.4410    0.3120 C   0  0  0  0  0
    6.4660    0.0820    2.0560 C   0  0  0  0  0
    7.3520   -0.8430    1.5070 C   0  0  0  0  0
   -3.9840    0.1300    0.5430 C   0  0  0  0  0
   -5.2340   -0.1330    0.0150 C   0  0  0  0  0
   -5.8450    0.7940   -0.8100 C   0  0  0  0  0
   -5.2050    1.9820   -1.1070 C   0  0  0  0  0
   -3.9570    2.2470   -0.5750 C   0  0  0  0  0
   -5.9310   -1.4290    0.3390 C   0  0  0  0  0
    3.5620   -0.4640   -1.7060 C   0  0  0  0  0
    4.4480   -1.3900   -2.2540 C   0  0  0  0  0
    5.6030   -1.7190   -1.6150 C   0  0  0  0  0
   -6.7540   -1.7960   -0.7310 F   0  0  0  0  0
   -4.9780   -2.4290    0.5590 F   0  0  0  0  0
   -6.7090   -1.2650    1.4900 F   0  0  0  0  0
    3.3040    2.6430   -1.4130 H   0  0  0  0  0
    2.5890    3.2750    0.0900 H   0  0  0  0  0
    4.2890    2.7470    0.0660 H   0  0  0  0  0
    0.6000    2.4510    0.5800 H   0  0  0  0  0
    0.5780    0.8790    1.4140 H   0  0  0  0  0
   -1.0040    1.5810   -1.1000 H   0  0  0  0  0
   -1.0250    0.0090   -0.2650 H   0  0  0  0  0
   -1.8820    1.1090    1.7850 H   0  0  0  0  0
   -1.8600    2.6810    0.9510 H   0  0  0  0  0
    1.3830   -0.1080   -0.6560 H   0  0  0  0  0
    2.8450    1.0460    1.1480 H   0  0  0  0  0
    4.6370    1.1360    1.8500 H   0  0  0  0  0
    7.7840   -2.1570   -0.1010 H   0  0  0  0  0
    6.6980    0.5420    3.0050 H   0  0  0  0  0
    8.2590   -1.0900    2.0370 H   0  0  0  0  0
   -3.5070   -0.5930    1.1870 H   0  0  0  0  0
   -6.8220    0.5880   -1.2220 H   0  0  0  0  0
   -5.6820    2.7050   -1.7520 H   0  0  0  0  0
   -3.4590    3.1780   -0.8040 H   0  0  0  0  0
    2.6520   -0.2210   -2.2330 H   0  0  0  0  0
    4.2130   -1.8540   -3.2010 H   0  0  0  0  0
    6.2800   -2.4380   -2.0530 H   0  0  0  0  0
  1  7  1  0  0  0
  1 27  1  0  0  0
  1 28  1  0  0  0
  1 29  1  0  0  0
  2  6  1  0  0  0
  2  3  1  0  0  0
  2 30  1  0  0  0
  2 31  1  0  0  0
  3 32  1  0  0  0
  3 33  1  0  0  0
  4  3  1  0  0  0
  4  5  1  0  0  0
  4 34  1  0  0  0
  4 35  1  0  0  0
  5 15  1  0  0  0
  6  7  1  0  0  0
  6 36  1  0  0  0
  7  8  1  0  0  0
  7 37  1  0  0  0
  8  9  1  0  0  0
  9 11  2  0  0  0
  9 10  1  0  0  0
 10 12  2  0  0  0
 11 13  1  0  0  0
 11 38  1  0  0  0
 12 14  1  0  0  0
 12 39  1  0  0  0
 13 14  2  0  0  0
 13 40  1  0  0  0
 14 41  1  0  0  0
 15 16  2  0  0  0
 15 42  1  0  0  0
 16 20  1  0  0  0
 17 16  1  0  0  0
 17 43  1  0  0  0
 18 17  2  0  0  0
 18 44  1  0  0  0
 19  5  2  0  0  0
 19 18  1  0  0  0
 19 45  1  0  0  0
 20 26  1  0  0  0
 20 24  1  0  0  0
 21  8  2  0  0  0
 21 22  1  0  0  0
 21 46  1  0  0  0
 22 23  2  0  0  0
 22 47  1  0  0  0
 23 10  1  0  0  0
 23 48  1  0  0  0
 25 20  1  0  0  0
M  END
$$$$
