YUX
  CCTOOLS-0919241040

 58 59  0  0  0  0  0  0  0  0999 V2000
    0.7670   -0.1740    1.3080 C   0  0  0  0  0
   -2.3620   -0.6160    0.3860 C   0  0  0  0  0
   -4.7810   -0.0640    0.0860 C   0  0  0  0  0
   -7.1990    0.4890   -0.2130 C   0  0  0  0  0
  -11.0370    0.7330   -0.0350 C   0  0  0  0  0
  -12.0350    1.5930   -0.8120 C   0  0  0  0  0
    0.5810   -1.8930   -0.3540 C   0  0  0  0  0
    9.3550    1.5500    0.4990 C   0  0  0  0  0
    8.0950    0.6990    0.3280 C   0  0  0  0  0
    7.1530    1.3760   -0.6690 C   0  0  0  0  0
    5.9130    0.5370   -0.8380 C   0  0  0  0  0
    3.9820   -0.3150   -0.6380 C   0  0  0  0  0
    2.6040   -0.6150   -0.1730 C   0  0  0  0  0
    2.0490    0.1080    0.8810 C   0  0  0  0  0
    0.0340   -1.1730    0.6920 C   0  0  0  0  0
   -1.3650   -1.4760    1.1630 C   0  0  0  0  0
   -3.7830   -0.9240    0.8640 C   0  0  0  0  0
   -6.2010   -0.3720    0.5640 C   0  0  0  0  0
   -8.6190    0.1810    0.2650 C   0  0  0  0  0
   -9.6170    1.0410   -0.5130 C   0  0  0  0  0
    1.8620   -1.6190   -0.7900 C   0  0  0  0  0
   10.2600    0.9000    1.4560 N   0  0  0  0  0
    4.8120    0.6260   -0.1340 N   0  0  0  0  0
    4.6200   -0.9130   -1.6100 N   0  0  0  0  0
    5.7270   -0.4340   -1.7370 O   0  0  0  0  0
    0.3380    0.3820    2.1280 H   0  0  0  0  0
   -2.1430    0.4380    0.5550 H   0  0  0  0  0
   -2.2810   -0.8370   -0.6790 H   0  0  0  0  0
   -4.5610    0.9910    0.2560 H   0  0  0  0  0
   -4.6990   -0.2850   -0.9780 H   0  0  0  0  0
   -6.9790    1.5430   -0.0440 H   0  0  0  0  0
   -7.1180    0.2670   -1.2780 H   0  0  0  0  0
  -11.1190    0.9540    1.0300 H   0  0  0  0  0
  -11.2570   -0.3210   -0.2040 H   0  0  0  0  0
  -13.0470    1.3740   -0.4720 H   0  0  0  0  0
  -11.8160    2.6470   -0.6430 H   0  0  0  0  0
  -11.9540    1.3720   -1.8760 H   0  0  0  0  0
    0.0040   -2.6720   -0.8320 H   0  0  0  0  0
    9.8570    1.6540   -0.4630 H   0  0  0  0  0
    9.0790    2.5360    0.8730 H   0  0  0  0  0
    8.3720   -0.2870   -0.0460 H   0  0  0  0  0
    7.5930    0.5950    1.2900 H   0  0  0  0  0
    6.8770    2.3620   -0.2950 H   0  0  0  0  0
    7.6550    1.4800   -1.6310 H   0  0  0  0  0
    2.6210    0.8880    1.3620 H   0  0  0  0  0
   -1.4460   -1.2550    2.2270 H   0  0  0  0  0
   -1.5840   -2.5300    0.9930 H   0  0  0  0  0
   -4.0020   -1.9780    0.6940 H   0  0  0  0  0
   -3.8640   -0.7020    1.9280 H   0  0  0  0  0
   -6.4210   -1.4260    0.3950 H   0  0  0  0  0
   -6.2820   -0.1500    1.6280 H   0  0  0  0  0
   -8.8390   -0.8740    0.0950 H   0  0  0  0  0
   -8.7000    0.4020    1.3290 H   0  0  0  0  0
   -9.5360    0.8200   -1.5770 H   0  0  0  0  0
   -9.3970    2.0950   -0.3430 H   0  0  0  0  0
    2.2870   -2.1820   -1.6070 H   0  0  0  0  0
   11.1000    1.4430    1.5870 H   0  0  0  0  0
    9.7960    0.7340    2.3370 H   0  0  0  0  0
  1 15  2  0  0  0
  1 14  1  0  0  0
  1 26  1  0  0  0
  2 16  1  0  0  0
  2 27  1  0  0  0
  2 28  1  0  0  0
  3 17  1  0  0  0
  3 29  1  0  0  0
  3 30  1  0  0  0
  4 18  1  0  0  0
  4 31  1  0  0  0
  4 32  1  0  0  0
  5 20  1  0  0  0
  5 33  1  0  0  0
  5 34  1  0  0  0
  6  5  1  0  0  0
  6 35  1  0  0  0
  6 36  1  0  0  0
  6 37  1  0  0  0
  7 21  2  0  0  0
  7 38  1  0  0  0
  8 39  1  0  0  0
  8 40  1  0  0  0
  9  8  1  0  0  0
  9 41  1  0  0  0
  9 42  1  0  0  0
 10  9  1  0  0  0
 10 43  1  0  0  0
 10 44  1  0  0  0
 11 10  1  0  0  0
 12 24  2  0  0  0
 12 23  1  0  0  0
 13 21  1  0  0  0
 13 12  1  0  0  0
 14 13  2  0  0  0
 14 45  1  0  0  0
 15  7  1  0  0  0
 16 15  1  0  0  0
 16 46  1  0  0  0
 16 47  1  0  0  0
 17  2  1  0  0  0
 17 48  1  0  0  0
 17 49  1  0  0  0
 18  3  1  0  0  0
 18 50  1  0  0  0
 18 51  1  0  0  0
 19  4  1  0  0  0
 19 52  1  0  0  0
 19 53  1  0  0  0
 20 19  1  0  0  0
 20 54  1  0  0  0
 20 55  1  0  0  0
 21 56  1  0  0  0
 22  8  1  0  0  0
 22 57  1  0  0  0
 22 58  1  0  0  0
 23 11  2  0  0  0
 24 25  1  0  0  0
 25 11  1  0  0  0
M  END
$$$$
