YVF
  CCTOOLS-0919241041

 48 50  0  0  1  0  0  0  0  0999 V2000
    4.0910    2.1540   -2.9060 C   0  0  0  0  0
    4.3510    1.1890   -0.7420 C   0  0  0  0  0
    3.9220    0.2840    0.3830 C   0  0  0  0  0
    4.4370   -1.1100    0.1300 C   0  0  0  0  0
    5.7220   -1.4440    0.0070 C   0  0  0  0  0
    5.9560   -2.7890   -0.2220 C   0  0  0  0  0
    4.8600   -3.5470   -0.2850 C   0  0  0  0  0
    4.4910    0.8060    1.7040 C   0  0  0  0  0
    1.7750    1.3980    0.6790 C   0  0  0  0  0
    0.3010    1.3720    0.7540 C   0  0  0  0  0
   -2.7900   -0.2380    0.6570 C   0  0  0  0  0
   -3.9330    0.1270   -0.0410 C   0  0  0  0  0
   -4.9990   -0.7470   -0.1240 C   0  0  0  0  0
   -6.2410   -0.3510   -0.8810 C   0  0  0  0  0
   -4.9290   -1.9850    0.4870 C   0  0  0  0  0
   -3.7920   -2.3520    1.1840 C   0  0  0  0  0
   -2.7200   -1.4850    1.2650 C   0  0  0  0  0
   -1.8080    1.9820    0.9670 C   0  0  0  0  0
   -3.0820    2.7630    1.1620 C   0  0  0  0  0
   -0.5490    2.4810    0.9790 C   0  0  0  0  0
   -6.1160   -0.7440   -2.2180 F   0  0  0  0  0
   -7.3540   -0.9780   -0.3120 F   0  0  0  0  0
   -6.4030    1.0370   -0.8160 F   0  0  0  0  0
    2.4590    0.2580    0.4580 N   0  0  0  0  0
   -0.4720    0.3120    0.6190 N   0  0  0  0  0
   -1.7060    0.6460    0.7420 N   0  0  0  0  0
    3.6170    1.2600   -1.8640 O   0  0  0  0  0
    2.3720    2.4480    0.8160 O   0  0  0  0  0
    5.3560    1.8520   -0.6350 O   0  0  0  0  0
    3.4350   -2.5460   -0.0390 S   0  0  0  0  0
    3.4080    2.1160   -3.7550 H   0  0  0  0  0
    4.1340    3.1720   -2.5200 H   0  0  0  0  0
    5.0860    1.8440   -3.2260 H   0  0  0  0  0
    6.5200   -0.7200    0.0800 H   0  0  0  0  0
    6.9500   -3.1940   -0.3420 H   0  0  0  0  0
    4.8490   -4.6140   -0.4560 H   0  0  0  0  0
    4.1190    1.8140    1.8860 H   0  0  0  0  0
    4.1800    0.1510    2.5170 H   0  0  0  0  0
    5.5790    0.8250    1.6480 H   0  0  0  0  0
   -3.9890    1.0950   -0.5180 H   0  0  0  0  0
   -5.7640   -2.6670    0.4210 H   0  0  0  0  0
   -3.7380   -3.3210    1.6570 H   0  0  0  0  0
   -1.8320   -1.7720    1.8090 H   0  0  0  0  0
   -3.4930    3.0360    0.1900 H   0  0  0  0  0
   -3.8040    2.1510    1.7030 H   0  0  0  0  0
   -2.8710    3.6660    1.7340 H   0  0  0  0  0
   -0.2560    3.5090    1.1300 H   0  0  0  0  0
    1.9820   -0.5800    0.3490 H   0  0  0  0  0
  1 31  1  0  0  0
  1 32  1  0  0  0
  1 33  1  0  0  0
  2 27  1  0  0  0
  2 29  2  0  0  0
  3  2  1  0  0  0
  4  5  2  0  0  0
  4  3  1  0  0  0
  5 34  1  0  0  0
  6  5  1  0  0  0
  6 35  1  0  0  0
  7 30  1  0  0  0
  7  6  2  0  0  0
  7 36  1  0  0  0
  8  3  1  0  0  0
  8 37  1  0  0  0
  8 38  1  0  0  0
  8 39  1  0  0  0
  9 28  2  0  0  0
 10  9  1  0  0  0
 11 26  1  0  0  0
 11 12  2  0  0  0
 12 40  1  0  0  0
 13 12  1  0  0  0
 13 14  1  0  0  0
 14 21  1  0  0  0
 15 13  2  0  0  0
 15 41  1  0  0  0
 16 17  2  0  0  0
 16 15  1  0  0  0
 16 42  1  0  0  0
 17 11  1  0  0  0
 17 43  1  0  0  0
 18 20  2  0  0  0
 19 18  1  0  0  0
 19 44  1  0  0  0
 19 45  1  0  0  0
 19 46  1  0  0  0
 20 10  1  0  0  0
 20 47  1  0  0  0
 22 14  1  0  0  0
 23 14  1  0  0  0
 24  9  1  0  0  0
 24  3  1  0  0  0
 24 48  1  0  0  0
 25 10  2  0  0  0
 26 18  1  0  0  0
 26 25  1  0  0  0
 27  1  1  0  0  0
 30  4  1  0  0  0
M  END
$$$$
