YX9
  CCTOOLS-0919241041

 59 61  0  0  1  0  0  0  0  0999 V2000
   -3.5130    0.2300   -0.0740 C   0  0  0  0  0
   -1.6870   -1.4630   -0.2730 C   0  0  0  0  0
   -0.8160   -4.9990    0.3050 C   0  0  0  0  0
    1.1940   -2.0460   -0.8770 C   0  0  0  0  0
    2.3280   -1.8000    0.1200 C   0  0  0  0  0
    3.3270   -0.8080   -0.4800 C   0  0  0  0  0
    5.4600    0.4300   -0.0830 C   0  0  0  0  0
    7.5790    1.6530    0.3240 C   0  0  0  0  0
   -5.5350    4.2420   -0.3230 C   0  0  0  0  0
   -6.6320    3.9870   -1.1230 C   0  0  0  0  0
   -7.0790    2.6890   -1.2900 C   0  0  0  0  0
   -6.4280    1.6470   -0.6570 C   0  0  0  0  0
   -5.3310    1.9030    0.1440 C   0  0  0  0  0
   -4.8800    3.2000    0.3060 C   0  0  0  0  0
   -4.6210    0.7670    0.8340 C   0  0  0  0  0
   -4.0680   -0.1310   -1.3400 O   0  0  0  0  0
   -2.8750   -1.0010    0.5730 C   0  0  0  0  0
   -0.9680   -2.6100    0.4410 C   0  0  0  0  0
    0.2370   -2.9960   -0.3030 N   0  0  0  0  0
    0.3500   -4.3320   -0.3900 C   0  0  0  0  0
   -1.8610   -3.8700    0.4610 C   0  0  0  0  0
    1.2560   -4.9180   -0.9440 O   0  0  0  0  0
    4.4620   -0.5620    0.5170 C   0  0  0  0  0
    6.5950    0.6760    0.9140 C   0  0  0  0  0
    7.9930    2.8090    0.8750 N   0  0  0  0  0
    8.8320    3.3440    0.0530 N   0  0  0  0  0
    8.9540    2.5760   -0.9730 N   0  0  0  0  0
    8.2030    1.5390   -0.8240 N   0  0  0  0  0
   -5.5350   -0.2560    1.1090 F   0  0  0  0  0
   -4.0610    1.2260    2.0320 F   0  0  0  0  0
   -2.7540    1.0000   -0.2160 H   0  0  0  0  0
   -2.0430   -1.8070   -1.2440 H   0  0  0  0  0
   -0.9950   -0.6320   -0.4130 H   0  0  0  0  0
   -1.2150   -5.8060   -0.3090 H   0  0  0  0  0
   -0.5150   -5.3780    1.2820 H   0  0  0  0  0
    0.6870   -1.1050   -1.0910 H   0  0  0  0  0
    1.6030   -2.4560   -1.8000 H   0  0  0  0  0
    1.9180   -1.3900    1.0430 H   0  0  0  0  0
    2.8350   -2.7410    0.3330 H   0  0  0  0  0
    3.7370   -1.2180   -1.4030 H   0  0  0  0  0
    2.8210    0.1330   -0.6930 H   0  0  0  0  0
    5.8700    0.0200   -1.0060 H   0  0  0  0  0
    4.9540    1.3720   -0.2960 H   0  0  0  0  0
   -5.1860    5.2560   -0.1930 H   0  0  0  0  0
   -7.1410    4.8010   -1.6180 H   0  0  0  0  0
   -7.9370    2.4900   -1.9150 H   0  0  0  0  0
   -6.7780    0.6340   -0.7870 H   0  0  0  0  0
   -4.0230    3.3990    0.9310 H   0  0  0  0  0
   -4.7510   -0.8130   -1.2900 H   0  0  0  0  0
   -2.5300   -0.7480    1.5750 H   0  0  0  0  0
   -3.6110   -1.8020    0.6330 H   0  0  0  0  0
   -0.7060   -2.3160    1.4570 H   0  0  0  0  0
   -2.5590   -3.8670   -0.3750 H   0  0  0  0  0
   -2.3910   -3.9580    1.4100 H   0  0  0  0  0
    4.0520   -0.1520    1.4400 H   0  0  0  0  0
    4.9680   -1.5030    0.7310 H   0  0  0  0  0
    6.1850    1.0860    1.8370 H   0  0  0  0  0
    7.1020   -0.2650    1.1280 H   0  0  0  0  0
    7.7120    3.1730    1.7300 H   0  0  0  0  0
  1 16  1  0  0  0
  1 15  1  0  0  0
  1 31  1  0  0  0
  2 17  1  0  0  0
  2 32  1  0  0  0
  2 33  1  0  0  0
  3 21  1  0  0  0
  3 34  1  0  0  0
  3 35  1  0  0  0
  4  5  1  0  0  0
  4 36  1  0  0  0
  4 37  1  0  0  0
  5 38  1  0  0  0
  5 39  1  0  0  0
  6  5  1  0  0  0
  6 40  1  0  0  0
  6 41  1  0  0  0
  7 23  1  0  0  0
  7 42  1  0  0  0
  7 43  1  0  0  0
  8 24  1  0  0  0
  9 10  1  0  0  0
  9 44  1  0  0  0
 10 45  1  0  0  0
 11 10  2  0  0  0
 11 46  1  0  0  0
 12 11  1  0  0  0
 12 47  1  0  0  0
 13 12  2  0  0  0
 13 14  1  0  0  0
 14  9  2  0  0  0
 14 48  1  0  0  0
 15 29  1  0  0  0
 15 13  1  0  0  0
 16 49  1  0  0  0
 17  1  1  0  0  0
 17 50  1  0  0  0
 17 51  1  0  0  0
 18  2  1  0  0  0
 18 52  1  0  0  0
 19  4  1  0  0  0
 19 18  1  0  0  0
 20  3  1  0  0  0
 20 19  1  0  0  0
 21 18  1  0  0  0
 21 53  1  0  0  0
 21 54  1  0  0  0
 22 20  2  0  0  0
 23  6  1  0  0  0
 23 55  1  0  0  0
 23 56  1  0  0  0
 24  7  1  0  0  0
 24 57  1  0  0  0
 24 58  1  0  0  0
 25  8  1  0  0  0
 25 59  1  0  0  0
 26 27  2  0  0  0
 26 25  1  0  0  0
 27 28  1  0  0  0
 28  8  2  0  0  0
 30 15  1  0  0  0
M  END
$$$$
