YZV
  CCTOOLS-0919241041

 59 61  0  0  1  0  0  0  0  0999 V2000
   -1.9560   -1.7700   -0.1520 C   0  0  0  0  0
   -0.9840   -5.2530   -0.7530 C   0  0  0  0  0
    0.5380   -2.0350    0.0410 C   0  0  0  0  0
    2.7240   -0.8240    0.0350 C   0  0  0  0  0
    6.4000    0.2740    0.3510 C   0  0  0  0  0
    7.0840    1.5770    0.0280 C   0  0  0  0  0
   -5.2250    4.2910    0.6260 C   0  0  0  0  0
   -0.1280   -3.3060    0.3550 N   0  0  0  0  0
   -2.3220    1.3900    1.0600 O   0  0  0  0  0
   -5.4670    4.6520   -0.6860 C   0  0  0  0  0
    7.8380    2.3170    0.8620 N   0  0  0  0  0
    1.3580   -5.1270   -0.0590 O   0  0  0  0  0
   -5.3860    3.7050   -1.6900 C   0  0  0  0  0
    8.2350    3.3510    0.2000 N   0  0  0  0  0
   -5.0630    2.3970   -1.3820 C   0  0  0  0  0
    7.7630    3.2830   -0.9960 N   0  0  0  0  0
   -4.8200    2.0360   -0.0690 C   0  0  0  0  0
    7.0640    2.2080   -1.1210 N   0  0  0  0  0
   -4.8960    2.9840    0.9340 C   0  0  0  0  0
   -4.4680    0.6100    0.2670 C   0  0  0  0  0
   -2.9490    0.4320    0.2060 C   0  0  0  0  0
   -2.5880   -0.9590    0.6600 C   0  0  0  0  0
   -1.5950   -3.1610    0.3020 C   0  0  0  0  0
    0.2750   -4.3650   -0.5950 C   0  0  0  0  0
   -2.1200   -4.1980   -0.7120 C   0  0  0  0  0
    2.0290   -2.1480    0.3630 C   0  0  0  0  0
    4.2150   -0.9370    0.3570 C   0  0  0  0  0
    4.9090    0.3870    0.0290 C   0  0  0  0  0
   -4.9210    0.3080    1.5550 F   0  0  0  0  0
   -5.0750   -0.2500   -0.6540 F   0  0  0  0  0
   -1.6990   -1.4440   -1.1490 H   0  0  0  0  0
   -0.9740   -5.7780   -1.7090 H   0  0  0  0  0
   -1.0740   -5.9560    0.0750 H   0  0  0  0  0
    0.4110   -1.8100   -1.0180 H   0  0  0  0  0
    0.0970   -1.2360    0.6370 H   0  0  0  0  0
    2.5960   -0.6000   -1.0240 H   0  0  0  0  0
    2.2830   -0.0250    0.6310 H   0  0  0  0  0
    6.8410   -0.5250   -0.2450 H   0  0  0  0  0
    6.5280    0.0490    1.4100 H   0  0  0  0  0
   -5.2880    5.0310    1.4100 H   0  0  0  0  0
   -2.5810    1.3170    1.9890 H   0  0  0  0  0
   -5.7200    5.6740   -0.9270 H   0  0  0  0  0
    8.0450    2.1120    1.7880 H   0  0  0  0  0
    1.6640   -5.8370   -0.6400 H   0  0  0  0  0
   -5.5760    3.9870   -2.7150 H   0  0  0  0  0
   -5.0000    1.6570   -2.1660 H   0  0  0  0  0
   -4.7060    2.7020    1.9590 H   0  0  0  0  0
   -2.6070    0.5800   -0.8190 H   0  0  0  0  0
   -2.8490   -1.2870    1.6550 H   0  0  0  0  0
   -2.0220   -3.3520    1.2870 H   0  0  0  0  0
    0.5540   -3.9280   -1.5530 H   0  0  0  0  0
   -2.2590   -3.7420   -1.6930 H   0  0  0  0  0
   -3.0500   -4.6450   -0.3590 H   0  0  0  0  0
    2.1570   -2.3720    1.4220 H   0  0  0  0  0
    2.4700   -2.9470   -0.2340 H   0  0  0  0  0
    4.3420   -1.1620    1.4160 H   0  0  0  0  0
    4.6560   -1.7360   -0.2400 H   0  0  0  0  0
    4.4680    1.1850    0.6260 H   0  0  0  0  0
    4.7820    0.6110   -1.0300 H   0  0  0  0  0
  1 23  1  0  0  0
  1 31  1  0  0  0
  2 25  1  0  0  0
  2 32  1  0  0  0
  2 33  1  0  0  0
  3  8  1  0  0  0
  3 34  1  0  0  0
  3 35  1  0  0  0
  4 27  1  0  0  0
  4 36  1  0  0  0
  4 37  1  0  0  0
  5  6  1  0  0  0
  5 38  1  0  0  0
  5 39  1  0  0  0
  6 18  2  0  0  0
  6 11  1  0  0  0
  7 10  1  0  0  0
  7 40  1  0  0  0
  8 24  1  0  0  0
  8 23  1  0  0  0
  9 21  1  0  0  0
  9 41  1  0  0  0
 10 13  2  0  0  0
 10 42  1  0  0  0
 11 14  1  0  0  0
 11 43  1  0  0  0
 12 24  1  0  0  0
 12 44  1  0  0  0
 13 45  1  0  0  0
 15 13  1  0  0  0
 15 46  1  0  0  0
 16 14  2  0  0  0
 17 15  2  0  0  0
 18 16  1  0  0  0
 19  7  2  0  0  0
 19 17  1  0  0  0
 19 47  1  0  0  0
 20 17  1  0  0  0
 20 21  1  0  0  0
 21 22  1  0  0  0
 21 48  1  0  0  0
 22  1  2  0  0  0
 22 49  1  0  0  0
 23 25  1  0  0  0
 23 50  1  0  0  0
 24  2  1  0  0  0
 24 51  1  0  0  0
 25 52  1  0  0  0
 25 53  1  0  0  0
 26  4  1  0  0  0
 26  3  1  0  0  0
 26 54  1  0  0  0
 26 55  1  0  0  0
 27 56  1  0  0  0
 27 57  1  0  0  0
 28  5  1  0  0  0
 28 27  1  0  0  0
 28 58  1  0  0  0
 28 59  1  0  0  0
 29 20  1  0  0  0
 30 20  1  0  0  0
M  END
$$$$
