Z2C
  CCTOOLS-0919241041

 66 67  0  0  1  0  0  0  0  0999 V2000
    2.6980    0.9490    0.1790 C   0  0  0  0  0
   -5.5730   -2.2390    0.1000 C   0  0  0  0  0
   -0.1640    4.2560    0.6050 C   0  0  0  0  0
   -3.0320    2.5180   -0.5580 C   0  0  0  0  0
   -1.6790    3.1030   -0.9690 C   0  0  0  0  0
   -1.7950    4.6310   -1.1430 C   0  0  0  0  0
   -0.6420    2.8650    0.1420 C   0  0  0  0  0
    3.7370    0.7490    1.2850 C   0  0  0  0  0
    5.0300   -1.3160    0.7100 C   0  0  0  0  0
    7.1800   -1.1900   -0.3380 C   0  0  0  0  0
    5.9890    0.8170    0.1950 C   0  0  0  0  0
    5.7060   -5.3830   -1.1250 C   0  0  0  0  0
   -2.9380    0.9920   -0.5210 C   0  0  0  0  0
   -4.2650   -1.4950   -0.1780 C   0  0  0  0  0
   -5.3100   -3.7470    0.1030 C   0  0  0  0  0
    5.6720   -3.9580   -1.0240 O   0  0  0  0  0
   -6.6080   -5.8220    0.4260 O   0  0  0  0  0
   -4.5770    0.2930   -0.1820 S   0  0  0  0  0
   -6.5980   -4.4800    0.3760 C   0  0  0  0  0
   -7.6210   -3.8610    0.5500 O   0  0  0  0  0
    2.2360   -0.3240   -0.2760 O   0  0  0  0  0
   -3.1500    5.0040   -1.4010 O   0  0  0  0  0
   -1.3250    5.2050    0.2160 C   0  0  0  0  0
    0.0420    4.2700    2.0190 O   0  0  0  0  0
    0.5380    2.0600   -0.4070 C   0  0  0  0  0
    1.5180    1.7530    0.7280 C   0  0  0  0  0
    4.9520    0.0650    0.7140 C   0  0  0  0  0
    6.1450   -1.9430    0.1860 C   0  0  0  0  0
    7.0990    0.1900   -0.3380 C   0  0  0  0  0
    6.2330   -3.4470    0.1870 C   0  0  0  0  0
    3.1510    1.4900   -0.6510 H   0  0  0  0  0
   -5.9650   -1.9360    1.0700 H   0  0  0  0  0
   -6.2990   -1.9990   -0.6770 H   0  0  0  0  0
    0.7520    4.5380    0.0840 H   0  0  0  0  0
   -3.3030    2.8900    0.4310 H   0  0  0  0  0
   -3.7920    2.8180   -1.2800 H   0  0  0  0  0
   -1.3430    2.6460   -1.9000 H   0  0  0  0  0
   -1.1460    4.9740   -1.9490 H   0  0  0  0  0
   -1.1020    2.3320    0.9740 H   0  0  0  0  0
    4.0230    1.7180    1.6940 H   0  0  0  0  0
    3.3110    0.1320    2.0760 H   0  0  0  0  0
    4.2220   -1.9030    1.1190 H   0  0  0  0  0
    8.0510   -1.6800   -0.7460 H   0  0  0  0  0
    5.9280    1.8960    0.1990 H   0  0  0  0  0
    6.7400   -5.7260   -1.0790 H   0  0  0  0  0
    5.1420   -5.8190   -0.3010 H   0  0  0  0  0
    5.2620   -5.6910   -2.0720 H   0  0  0  0  0
   -2.5790    0.6270   -1.4830 H   0  0  0  0  0
   -2.2440    0.6890    0.2640 H   0  0  0  0  0
   -3.5390   -1.7350    0.5990 H   0  0  0  0  0
   -3.8730   -1.7970   -1.1480 H   0  0  0  0  0
   -4.9180   -4.0500   -0.8680 H   0  0  0  0  0
   -4.5830   -3.9870    0.8800 H   0  0  0  0  0
   -7.4580   -6.2480    0.6040 H   0  0  0  0  0
    1.8200   -0.8610    0.4120 H   0  0  0  0  0
   -3.2810    5.9550   -1.5190 H   0  0  0  0  0
   -2.1260    5.1570    0.9540 H   0  0  0  0  0
   -0.9660    6.2280    0.1010 H   0  0  0  0  0
    0.3430    5.1210    2.3640 H   0  0  0  0  0
    0.1740    1.1270   -0.8350 H   0  0  0  0  0
    1.0460    2.6400   -1.1780 H   0  0  0  0  0
    1.0100    1.1730    1.4990 H   0  0  0  0  0
    1.8820    2.6870    1.1560 H   0  0  0  0  0
    7.9090    0.7780   -0.7440 H   0  0  0  0  0
    5.6800   -3.8430    1.0390 H   0  0  0  0  0
    7.2770   -3.7500    0.2600 H   0  0  0  0  0
  1 26  1  0  0  0
  1  8  1  0  0  0
  1 31  1  0  0  0
  2 14  1  0  0  0
  2 32  1  0  0  0
  2 33  1  0  0  0
  3 24  1  0  0  0
  3  7  1  0  0  0
  3 34  1  0  0  0
  4 13  1  0  0  0
  4 35  1  0  0  0
  4 36  1  0  0  0
  5  4  1  0  0  0
  5 37  1  0  0  0
  6 22  1  0  0  0
  6  5  1  0  0  0
  6 38  1  0  0  0
  7  5  1  0  0  0
  7 39  1  0  0  0
  8 27  1  0  0  0
  8 40  1  0  0  0
  8 41  1  0  0  0
  9 28  2  0  0  0
  9 42  1  0  0  0
 10 28  1  0  0  0
 10 43  1  0  0  0
 11 27  2  0  0  0
 11 29  1  0  0  0
 11 44  1  0  0  0
 12 45  1  0  0  0
 12 46  1  0  0  0
 12 47  1  0  0  0
 13 18  1  0  0  0
 13 48  1  0  0  0
 13 49  1  0  0  0
 14 18  1  0  0  0
 14 50  1  0  0  0
 14 51  1  0  0  0
 15  2  1  0  0  0
 15 19  1  0  0  0
 15 52  1  0  0  0
 15 53  1  0  0  0
 16 12  1  0  0  0
 17 54  1  0  0  0
 19 17  1  0  0  0
 20 19  2  0  0  0
 21  1  1  0  0  0
 21 55  1  0  0  0
 22 56  1  0  0  0
 23  3  1  0  0  0
 23  6  1  0  0  0
 23 57  1  0  0  0
 23 58  1  0  0  0
 24 59  1  0  0  0
 25  7  1  0  0  0
 25 26  1  0  0  0
 25 60  1  0  0  0
 25 61  1  0  0  0
 26 62  1  0  0  0
 26 63  1  0  0  0
 27  9  1  0  0  0
 28 30  1  0  0  0
 29 10  2  0  0  0
 29 64  1  0  0  0
 30 16  1  0  0  0
 30 65  1  0  0  0
 30 66  1  0  0  0
M  END
$$$$
