ZWY
  CCTOOLS-0919241044

 53 56  0  0  1  0  0  0  0  0999 V2000
    4.1560    0.5220    1.5350 C   0  0  0  0  0
    4.2930    0.3460    0.0220 C   0  0  0  0  0
    3.7280    1.5620   -0.6870 C   0  0  0  0  0
    2.2920    1.7580   -0.1770 C   0  0  0  0  0
    1.4340    0.5190   -0.4130 C   0  0  0  0  0
    2.0790   -0.7430    0.1750 C   0  0  0  0  0
    3.4570   -0.8780   -0.4410 C   0  0  0  0  0
    4.3070   -2.0370    0.0930 C   0  0  0  0  0
    5.7540   -1.5630   -0.2150 C   0  0  0  0  0
    5.7020   -0.0420   -0.3180 C   0  0  0  0  0
    1.2210   -1.9500   -0.2220 C   0  0  0  0  0
   -0.1890   -1.7270    0.2430 C   0  0  0  0  0
   -0.7000   -0.5440    0.4130 C   0  0  0  0  0
    0.0500    0.7330    0.1760 C   0  0  0  0  0
   -0.7740    1.6450   -0.7380 C   0  0  0  0  0
   -2.1680    1.8390   -0.1390 C   0  0  0  0  0
   -2.8930    0.4940   -0.0740 C   0  0  0  0  0
   -2.1440   -0.4440    0.8770 C   0  0  0  0  0
    0.2080    1.4490    1.5190 C   0  0  0  0  0
    6.6090    0.6980   -0.6120 O   0  0  0  0  0
   -4.2250    0.6930    0.4050 O   0  0  0  0  0
   -6.5270    0.2250    0.2090 O   0  0  0  0  0
   -4.8950   -0.3700   -1.5890 O   0  0  0  0  0
   -5.0600   -1.6100    0.4090 O   0  0  0  0  0
   -5.2530   -0.2380   -0.2200 S   0  0  0  0  0
    4.8180    1.3210    1.8690 H   0  0  0  0  0
    3.1250    0.7780    1.7800 H   0  0  0  0  0
    4.4270   -0.4080    2.0350 H   0  0  0  0  0
    4.3290    2.4400   -0.4530 H   0  0  0  0  0
    3.7210    1.3930   -1.7640 H   0  0  0  0  0
    2.3220    1.9720    0.8920 H   0  0  0  0  0
    1.8440    2.6060   -0.6950 H   0  0  0  0  0
    1.3210    0.3790   -1.4880 H   0  0  0  0  0
    2.1560   -0.6580    1.2590 H   0  0  0  0  0
    3.3860   -0.9060   -1.5280 H   0  0  0  0  0
    4.1610   -2.1640    1.1650 H   0  0  0  0  0
    4.0810   -2.9610   -0.4410 H   0  0  0  0  0
    6.4240   -1.8600    0.5920 H   0  0  0  0  0
    6.0940   -1.9900   -1.1580 H   0  0  0  0  0
    1.2330   -2.0640   -1.3060 H   0  0  0  0  0
    1.6210   -2.8500    0.2430 H   0  0  0  0  0
   -0.8060   -2.5900    0.4450 H   0  0  0  0  0
   -0.2790    2.6120   -0.8280 H   0  0  0  0  0
   -0.8620    1.1880   -1.7240 H   0  0  0  0  0
   -2.0770    2.2510    0.8670 H   0  0  0  0  0
   -2.7380    2.5290   -0.7610 H   0  0  0  0  0
   -2.9280    0.0510   -1.0690 H   0  0  0  0  0
   -2.6050   -1.4320    0.8570 H   0  0  0  0  0
   -2.1770   -0.0430    1.8900 H   0  0  0  0  0
    0.7020    2.4080    1.3630 H   0  0  0  0  0
   -0.7740    1.6140    1.9620 H   0  0  0  0  0
    0.8100    0.8350    2.1890 H   0  0  0  0  0
   -5.6700   -2.2840    0.0790 H   0  0  0  0  0
  1  2  1  0  0  0
  1 26  1  0  0  0
  1 27  1  0  0  0
  1 28  1  0  0  0
  2 10  1  0  0  0
  2  7  1  0  0  0
  3  2  1  0  0  0
  3 29  1  0  0  0
  3 30  1  0  0  0
  4  3  1  0  0  0
  4  5  1  0  0  0
  4 31  1  0  0  0
  4 32  1  0  0  0
  5  6  1  0  0  0
  5 33  1  0  0  0
  6  7  1  0  0  0
  6 11  1  0  0  0
  6 34  1  0  0  0
  7  8  1  0  0  0
  7 35  1  0  0  0
  8  9  1  0  0  0
  8 36  1  0  0  0
  8 37  1  0  0  0
  9 38  1  0  0  0
  9 39  1  0  0  0
 10  9  1  0  0  0
 11 40  1  0  0  0
 11 41  1  0  0  0
 12 11  1  0  0  0
 12 42  1  0  0  0
 13 12  2  0  0  0
 14  5  1  0  0  0
 14 13  1  0  0  0
 15 14  1  0  0  0
 15 43  1  0  0  0
 15 44  1  0  0  0
 16 15  1  0  0  0
 16 17  1  0  0  0
 16 45  1  0  0  0
 16 46  1  0  0  0
 17 18  1  0  0  0
 17 47  1  0  0  0
 18 13  1  0  0  0
 18 48  1  0  0  0
 18 49  1  0  0  0
 19 14  1  0  0  0
 19 50  1  0  0  0
 19 51  1  0  0  0
 19 52  1  0  0  0
 20 10  2  0  0  0
 21 17  1  0  0  0
 23 25  2  0  0  0
 24 53  1  0  0  0
 25 22  2  0  0  0
 25 21  1  0  0  0
 25 24  1  0  0  0
M  END
$$$$
